<?xml version="1.0" encoding="UTF-8"?>

<!-- generated on 2022-05-16 14:37:29 by Eclipse SUMO netedit Version 1.10.0
<configuration xmlns:xsi="http://www.w3.org/2001/XMLSchema-instance" xsi:noNamespaceSchemaLocation="http://sumo.dlr.de/xsd/netconvertConfiguration.xsd">

    <input>
        <sumo-net-file value="scenarios/loop/map.net.xml"/>
    </input>

    <output>
        <output-file value="scenarios/loop/map.net.xml"/>
    </output>

    <processing>
        <geometry.min-radius.fix.railways value="false"/>
        <geometry.max-grade.fix value="false"/>
        <offset.disable-normalization value="true"/>
        <lefthand value="false"/>
    </processing>

    <junctions>
        <no-turnarounds value="true"/>
        <junctions.corner-detail value="5"/>
        <junctions.limit-turn-speed value="5.5"/>
        <rectangular-lane-cut value="false"/>
    </junctions>

    <pedestrian>
        <walkingareas value="false"/>
    </pedestrian>

    <netedit>
        <additional-files value="/home/kyber/Desktop/SMARTS/scenarios/loop/traffic/loop.add.xml"/>
    </netedit>

    <report>
        <aggregate-warnings value="5"/>
    </report>

</configuration>
-->

<additional xmlns:xsi="http://www.w3.org/2001/XMLSchema-instance" xsi:noNamespaceSchemaLocation="http://sumo.dlr.de/xsd/additional_file.xsd">
    <rerouter id="rerouter_0" edges="445633931" pos="124.69,51.08">
        <interval begin="0.00" end="3600.00">
            <destProbReroute id="445633932" probability="1.00"/>
        </interval>
    </rerouter>
    <rerouter id="rerouter_1" edges="445633932" pos="124.27,20.12">
        <interval begin="0.00" end="3600.00">
            <destProbReroute id="445633931" probability="1.00"/>
        </interval>
    </rerouter>
</additional>
