<?xml version="1.0" encoding="UTF-8"?>

<!-- generated on 2021-08-19 16:16:12 by Eclipse SUMO netconvert Version 1.9.2
<configuration xmlns:xsi="http://www.w3.org/2001/XMLSchema-instance" xsi:noNamespaceSchemaLocation="http://sumo.dlr.de/xsd/netconvertConfiguration.xsd">

    <input>
        <node-files value="/home/saul/code/SMARTS/scenarios/waymo/nodes-e211c9b4f68ff2c8.nod.xml"/>
        <edge-files value="/home/saul/code/SMARTS/scenarios/waymo/edges-e211c9b4f68ff2c8.edg.xml"/>
    </input>

    <output>
        <output-file value="/home/saul/code/SMARTS/scenarios/waymo/map-e211c9b4f68ff2c8.net.xml"/>
    </output>

    <processing>
        <offset.disable-normalization value="true"/>
    </processing>

    <junctions>
        <no-internal-links value="false"/>
        <junctions.join-same value="true"/>
    </junctions>

    <report>
        <aggregate-warnings value="5"/>
    </report>

</configuration>
-->

<net version="1.9" junctionCornerDetail="5" limitTurnSpeed="5.50" xmlns:xsi="http://www.w3.org/2001/XMLSchema-instance" xsi:noNamespaceSchemaLocation="http://sumo.dlr.de/xsd/net_file.xsd">

    <location netOffset="0.00,0.00" convBoundary="-30.56,8082.46,256.23,8325.51" origBoundary="-30.56,8082.46,256.23,8325.51" projParameter="!"/>

    <edge id=":cluster_node-10_node-11_node-14_0" function="internal">
        <lane id=":cluster_node-10_node-11_node-14_0_0" index="0" speed="11.00" length="3.00" width="5.00" shape="244.47,8128.46 241.47,8128.47"/>
    </edge>
    <edge id=":cluster_node-10_node-11_node-14_1" function="internal">
        <lane id=":cluster_node-10_node-11_node-14_1_0" index="0" speed="11.00" length="3.00" width="5.00" shape="244.47,8128.43 241.47,8128.47"/>
    </edge>
    <edge id=":cluster_node-12_node-23_node-25_0" function="internal">
        <lane id=":cluster_node-12_node-23_node-25_0_0" index="0" speed="11.00" length="9.13" width="5.00" shape="160.01,8127.96 150.89,8127.89"/>
    </edge>
    <edge id=":cluster_node-12_node-23_node-25_1" function="internal">
        <lane id=":cluster_node-12_node-23_node-25_1_0" index="0" speed="7.70" length="12.00" width="5.00" shape="160.01,8127.96 155.53,8127.68 152.29,8126.93 150.32,8125.69 149.61,8123.98"/>
    </edge>
    <edge id=":cluster_node-17_node-30_node-36_0" function="internal">
        <lane id=":cluster_node-17_node-30_node-36_0_0" index="0" speed="11.00" length="2.85" width="5.00" shape="157.14,8124.99 159.98,8125.02"/>
    </edge>
    <edge id=":cluster_node-17_node-30_node-36_1" function="internal">
        <lane id=":cluster_node-17_node-30_node-36_1_0" index="0" speed="11.00" length="6.00" width="5.00" shape="153.98,8124.97 159.98,8125.02"/>
    </edge>
    <edge id=":cluster_node-18_node-5_node-7_0" function="internal">
        <lane id=":cluster_node-18_node-5_node-7_0_0" index="0" speed="11.00" length="3.00" width="5.00" shape="241.10,8125.49 242.00,8125.51 242.61,8125.54 243.22,8125.53 244.10,8125.44"/>
    </edge>
    <edge id=":cluster_node-18_node-5_node-7_1" function="internal">
        <lane id=":cluster_node-18_node-5_node-7_1_0" index="0" speed="11.00" length="3.00" width="5.00" shape="241.10,8125.49 244.10,8125.50"/>
    </edge>
    <edge id=":cluster_node-1_node-62_node-72_0" function="internal">
        <lane id=":cluster_node-1_node-62_node-72_0_0" index="0" speed="11.00" length="2.34" width="5.00" shape="49.75,8227.92 49.71,8230.26"/>
    </edge>
    <edge id=":cluster_node-1_node-62_node-72_1" function="internal">
        <lane id=":cluster_node-1_node-62_node-72_1_0" index="0" speed="11.00" length="10.39" width="5.00" shape="49.95,8219.87 49.71,8230.26"/>
    </edge>
    <edge id=":cluster_node-21_node-24_node-32_0" function="internal">
        <lane id=":cluster_node-21_node-24_node-32_0_0" index="0" speed="11.00" length="7.11" width="5.00" shape="149.60,8123.78 149.44,8116.67"/>
    </edge>
    <edge id=":cluster_node-21_node-24_node-32_1" function="internal">
        <lane id=":cluster_node-21_node-24_node-32_1_0" index="0" speed="8.22" length="5.21" width="5.00" shape="146.19,8120.74 149.44,8116.67"/>
    </edge>
    <edge id=":cluster_node-26_node-27_node-34_0" function="internal">
        <lane id=":cluster_node-26_node-27_node-34_0_0" index="0" speed="11.00" length="10.14" width="5.00" shape="150.69,8127.89 140.55,8127.81"/>
    </edge>
    <edge id=":cluster_node-26_node-27_node-34_1" function="internal">
        <lane id=":cluster_node-26_node-27_node-34_1_0" index="0" speed="11.00" length="11.41" width="5.00" shape="151.51,8125.42 148.66,8126.84 146.27,8127.56 143.76,8127.80 140.55,8127.81"/>
    </edge>
    <edge id=":cluster_node-28_node-53_node-55_0" function="internal">
        <lane id=":cluster_node-28_node-53_node-55_0_0" index="0" speed="7.31" length="11.28" width="5.00" shape="58.31,8126.80 54.96,8127.14 52.57,8128.30 51.14,8130.26 50.67,8133.04"/>
    </edge>
    <edge id=":cluster_node-28_node-53_node-55_1" function="internal">
        <lane id=":cluster_node-28_node-53_node-55_1_0" index="0" speed="7.41" length="8.01" width="5.00" shape="58.31,8126.80 56.71,8126.80 54.13,8126.76 51.66,8126.54 50.42,8126.03"/>
    </edge>
    <edge id=":cluster_node-29_node-31_node-38_0" function="internal">
        <lane id=":cluster_node-29_node-31_node-38_0_0" index="0" speed="8.57" length="7.01" width="5.00" shape="140.43,8124.84 141.54,8124.60 142.84,8123.86 144.35,8122.62 146.06,8120.89"/>
    </edge>
    <edge id=":cluster_node-29_node-31_node-38_1" function="internal">
        <lane id=":cluster_node-29_node-31_node-38_1_0" index="0" speed="11.00" length="12.38" width="5.00" shape="140.43,8124.84 152.81,8124.95"/>
    </edge>
    <edge id=":cluster_node-37_node-44_node-48_0" function="internal">
        <lane id=":cluster_node-37_node-44_node-48_0_0" index="0" speed="9.16" length="5.59" width="5.00" shape="55.19,8121.00 56.42,8122.15 57.26,8123.05 58.21,8123.63 59.77,8123.85"/>
    </edge>
    <edge id=":cluster_node-37_node-44_node-48_1" function="internal">
        <lane id=":cluster_node-37_node-44_node-48_1_0" index="0" speed="11.00" length="2.37" width="5.00" shape="52.39,8124.32 54.57,8124.05 54.75,8124.03"/>
    </edge>
    <edge id=":cluster_node-37_node-44_node-48_2" function="internal">
        <lane id=":cluster_node-37_node-44_node-48_2_0" index="0" speed="11.00" length="5.03" width="5.00" shape="54.75,8124.03 56.07,8123.89 57.57,8123.84 59.77,8123.85"/>
    </edge>
    <edge id=":cluster_node-40_node-43_node-45_0" function="internal">
        <lane id=":cluster_node-40_node-43_node-45_0_0" index="0" speed="8.28" length="7.19" width="5.00" shape="50.86,8115.25 51.11,8116.45 51.89,8117.79 53.20,8119.27 55.04,8120.88"/>
    </edge>
    <edge id=":cluster_node-40_node-43_node-45_1" function="internal">
        <lane id=":cluster_node-40_node-43_node-45_1_0" index="0" speed="11.00" length="12.08" width="5.00" shape="50.86,8115.25 50.75,8127.33"/>
    </edge>
    <edge id=":cluster_node-41_node-50_node-56_0" function="internal">
        <lane id=":cluster_node-41_node-50_node-56_0_0" index="0" speed="11.00" length="10.83" width="5.00" shape="50.34,8125.85 49.27,8122.94 48.71,8120.70 48.51,8118.39 48.49,8115.29"/>
    </edge>
    <edge id=":cluster_node-41_node-50_node-56_1" function="internal">
        <lane id=":cluster_node-41_node-50_node-56_1_0" index="0" speed="11.00" length="10.16" width="5.00" shape="48.40,8125.45 48.49,8115.29"/>
    </edge>
    <edge id=":cluster_node-46_node-51_node-54_0" function="internal">
        <lane id=":cluster_node-46_node-51_node-54_0_0" index="0" speed="11.00" length="3.85" width="5.00" shape="50.68,8133.15 50.66,8137.00"/>
    </edge>
    <edge id=":cluster_node-46_node-51_node-54_1" function="internal">
        <lane id=":cluster_node-46_node-51_node-54_1_0" index="0" speed="11.00" length="3.39" width="5.00" shape="50.69,8133.61 50.66,8137.00"/>
    </edge>
    <edge id=":cluster_node-47_node-49_node-58_0" function="internal">
        <lane id=":cluster_node-47_node-49_node-58_0_0" index="0" speed="11.00" length="11.28" width="5.00" shape="48.28,8136.93 48.39,8125.65"/>
    </edge>
    <edge id=":cluster_node-47_node-49_node-58_1" function="internal">
        <lane id=":cluster_node-47_node-49_node-58_1_0" index="0" speed="8.49" length="13.91" width="5.00" shape="48.28,8136.93 48.57,8131.61 49.32,8127.74 50.53,8125.32 52.19,8124.35"/>
    </edge>
    <edge id=":cluster_node-4_node-69_node-73_0" function="internal">
        <lane id=":cluster_node-4_node-69_node-73_0_0" index="0" speed="11.00" length="10.25" width="5.00" shape="47.32,8230.26 47.42,8220.01"/>
    </edge>
    <edge id=":cluster_node-4_node-69_node-73_1" function="internal">
        <lane id=":cluster_node-4_node-69_node-73_1_0" index="0" speed="7.90" length="12.97" width="5.00" shape="47.32,8230.26 47.63,8225.39 48.47,8221.91 49.82,8219.80 51.70,8219.08"/>
    </edge>
    <edge id=":cluster_node-52_node-67_node-71_0" function="internal">
        <lane id=":cluster_node-52_node-67_node-71_0_0" index="0" speed="8.01" length="6.88" width="5.00" shape="50.17,8210.62 50.40,8211.81 51.14,8213.10 52.38,8214.51 54.12,8216.03"/>
    </edge>
    <edge id=":cluster_node-52_node-67_node-71_1" function="internal">
        <lane id=":cluster_node-52_node-67_node-71_1_0" index="0" speed="11.00" length="9.05" width="5.00" shape="50.17,8210.62 49.96,8219.67"/>
    </edge>
    <edge id=":cluster_node-57_node-64_node-74_0" function="internal">
        <lane id=":cluster_node-57_node-64_node-74_0_0" index="0" speed="11.00" length="10.49" width="5.00" shape="49.64,8220.82 48.44,8218.02 47.80,8215.92 47.55,8213.74 47.54,8210.69"/>
    </edge>
    <edge id=":cluster_node-57_node-64_node-74_1" function="internal">
        <lane id=":cluster_node-57_node-64_node-74_1_0" index="0" speed="11.00" length="9.12" width="5.00" shape="47.43,8219.81 47.54,8210.69"/>
    </edge>
    <edge id=":cluster_node-60_node-61_node-63_0" function="internal">
        <lane id=":cluster_node-60_node-61_node-63_0_0" index="0" speed="7.26" length="10.62" width="5.00" shape="57.30,8221.61 54.09,8221.95 51.77,8223.00 50.33,8224.78 49.77,8227.28"/>
    </edge>
    <edge id=":cluster_node-60_node-61_node-63_1" function="internal">
        <lane id=":cluster_node-60_node-61_node-63_1_0" index="0" speed="7.41" length="7.67" width="5.00" shape="57.30,8221.61 55.75,8221.64 53.29,8221.65 50.94,8221.48 49.73,8221.01"/>
    </edge>
    <edge id=":cluster_node-65_node-68_node-70_0" function="internal">
        <lane id=":cluster_node-65_node-68_node-70_0_0" index="0" speed="9.14" length="5.57" width="5.00" shape="54.28,8216.15 55.49,8217.30 56.32,8218.20 57.26,8218.80 58.80,8219.02"/>
    </edge>
    <edge id=":cluster_node-65_node-68_node-70_1" function="internal">
        <lane id=":cluster_node-65_node-68_node-70_1_0" index="0" speed="11.00" length="6.90" width="5.00" shape="51.90,8219.08 58.80,8219.02"/>
    </edge>

    <edge id="edge-1" from="cluster_node-1_node-62_node-72" to="node-2" priority="1">
        <lane id="edge-1_0" index="0" speed="11.00" length="113.64" width="5.00" customShape="1" shape="49.71,8230.26 49.70,8230.42 49.70,8230.91 49.69,8231.41 49.68,8231.91 49.67,8232.41 49.66,8232.91 49.65,8233.41 49.65,8233.91 49.64,8234.41 49.63,8234.91 49.62,8235.41 49.62,8235.91 49.61,8236.40 49.61,8236.90 49.60,8237.40 49.60,8237.90 49.59,8238.40 49.59,8238.90 49.58,8239.40 49.58,8239.90 49.57,8240.40 49.57,8240.90 49.57,8241.40 49.56,8241.89 49.56,8242.39 49.56,8242.89 49.56,8243.39 49.55,8243.89 49.55,8244.39 49.55,8244.89 49.55,8245.39 49.55,8245.89 49.55,8246.39 49.55,8246.89 49.55,8247.38 49.55,8247.88 49.55,8248.38 49.55,8248.88 49.55,8249.38 49.55,8249.88 49.55,8250.38 49.56,8250.88 49.56,8251.38 49.56,8251.88 49.56,8252.38 49.57,8252.88 49.57,8253.37 49.57,8253.87 49.58,8254.37 49.58,8254.87 49.59,8255.37 49.59,8255.87 49.60,8256.37 49.60,8256.87 49.60,8257.36 49.60,8257.86 49.59,8258.36 49.57,8258.86 49.54,8259.35 49.50,8259.85 49.44,8260.34 49.36,8260.84 49.27,8261.32 49.15,8261.81 49.02,8262.29 48.87,8262.76 48.69,8263.23 48.50,8263.69 48.28,8264.13 48.04,8264.57 47.78,8265.00 47.50,8265.41 47.21,8265.81 46.89,8266.19 46.55,8266.56 46.20,8266.91 45.83,8267.24 45.44,8267.55 45.05,8267.85 44.63,8268.13 44.21,8268.39 43.77,8268.63 43.33,8268.86 42.88,8269.07 42.42,8269.25 41.95,8269.43 41.48,8269.58 41.00,8269.72 40.52,8269.85 40.03,8269.96 39.55,8270.06 39.06,8270.14 38.56,8270.22 38.07,8270.28 37.57,8270.33 37.08,8270.37 36.58,8270.41 36.09,8270.44 35.59,8270.46 35.09,8270.48 34.59,8270.49 34.10,8270.50 33.60,8270.50 33.10,8270.51 32.60,8270.51 32.10,8270.51 31.61,8270.50 31.11,8270.50 30.61,8270.50 30.11,8270.50 29.62,8270.49 29.12,8270.49 28.62,8270.49 28.12,8270.48 27.62,8270.48 27.12,8270.48 26.63,8270.47 26.13,8270.47 25.63,8270.47 25.13,8270.46 24.63,8270.46 24.13,8270.46 23.64,8270.45 23.14,8270.45 22.64,8270.45 22.14,8270.44 21.64,8270.44 21.14,8270.44 20.65,8270.43 20.15,8270.43 19.65,8270.42 19.15,8270.42 18.65,8270.42 18.16,8270.41 17.66,8270.41 17.16,8270.40 16.66,8270.40 16.16,8270.39 15.66,8270.39 15.17,8270.39 14.67,8270.38 14.17,8270.38 13.67,8270.37 13.17,8270.37 12.67,8270.36 12.18,8270.36 11.68,8270.35 11.18,8270.35 10.68,8270.34 10.18,8270.34 9.69,8270.33 9.19,8270.33 8.69,8270.32 8.19,8270.32 7.69,8270.31 7.19,8270.31 6.70,8270.30 6.20,8270.30 5.70,8270.29 5.20,8270.29 4.70,8270.28 4.20,8270.27 3.71,8270.27 3.21,8270.26 2.71,8270.26 2.21,8270.25 1.71,8270.25 1.22,8270.24 0.72,8270.23 0.22,8270.23 -0.28,8270.22 -0.78,8270.22 -1.28,8270.21 -1.77,8270.20 -2.27,8270.20 -2.77,8270.19 -3.27,8270.18 -3.77,8270.18 -4.27,8270.17 -4.76,8270.16 -5.26,8270.16 -5.76,8270.15 -6.26,8270.14 -6.76,8270.14 -7.25,8270.13 -7.75,8270.12 -8.25,8270.12 -8.75,8270.11 -9.25,8270.10 -9.75,8270.10 -10.24,8270.09 -10.74,8270.08 -11.23,8270.07 -11.73,8270.07 -12.22,8270.06 -12.72,8270.05 -13.21,8270.05 -13.71,8270.04 -14.20,8270.03 -14.70,8270.02 -15.19,8270.02 -15.69,8270.01 -16.18,8270.00 -16.68,8270.00 -17.17,8269.99 -17.67,8269.98 -18.16,8269.98 -18.66,8269.97 -19.15,8269.96 -19.65,8269.96 -20.14,8269.95 -20.64,8269.94 -21.13,8269.94 -21.63,8269.93 -22.12,8269.93 -22.62,8269.92 -23.11,8269.92 -23.60,8269.91 -24.10,8269.91 -24.59,8269.90 -25.09,8269.90 -25.58,8269.90 -26.08,8269.89 -26.57,8269.89 -27.07,8269.89 -27.56,8269.88 -28.06,8269.88 -28.55,8269.88 -29.05,8269.88"/>
    </edge>
    <edge id="edge-11" from="cluster_node-21_node-24_node-32" to="node-22" priority="1">
        <lane id="edge-11_0" index="0" speed="11.00" length="31.00" width="5.00" customShape="1" shape="149.44,8116.67 149.44,8116.52 149.44,8116.02 149.45,8115.52 149.45,8115.02 149.45,8114.53 149.45,8114.03 149.46,8113.53 149.46,8113.03 149.46,8112.53 149.47,8112.04 149.47,8111.54 149.47,8111.04 149.48,8110.54 149.48,8110.05 149.48,8109.55 149.49,8109.05 149.49,8108.55 149.49,8108.06 149.50,8107.56 149.50,8107.06 149.50,8106.56 149.51,8106.07 149.51,8105.57 149.51,8105.07 149.52,8104.57 149.52,8104.07 149.53,8103.58 149.53,8103.08 149.53,8102.58 149.54,8102.08 149.54,8101.59 149.54,8101.09 149.55,8100.59 149.55,8100.09 149.55,8099.60 149.56,8099.10 149.56,8098.60 149.57,8098.10 149.57,8097.61 149.57,8097.11 149.58,8096.61 149.58,8096.11 149.59,8095.62 149.59,8095.12 149.59,8094.62 149.60,8094.12 149.60,8093.62 149.60,8093.13 149.61,8092.63 149.61,8092.13 149.62,8091.63 149.62,8091.14 149.63,8090.64 149.63,8090.14 149.63,8089.64 149.64,8089.15 149.64,8088.65 149.65,8088.15 149.65,8087.65 149.65,8087.16 149.66,8086.66 149.66,8086.16 149.67,8085.66"/>
    </edge>
    <edge id="edge-12" from="cluster_node-12_node-23_node-25" to="cluster_node-21_node-24_node-32" priority="1">
        <lane id="edge-12_0" index="0" speed="11.00" length="0.20" width="5.00" customShape="1" shape="149.61,8123.98 149.60,8123.78"/>
    </edge>
    <edge id="edge-13" from="cluster_node-12_node-23_node-25" to="cluster_node-26_node-27_node-34" priority="1">
        <lane id="edge-13_0" index="0" speed="11.00" length="0.20" width="5.00" customShape="1" shape="150.89,8127.89 150.69,8127.89"/>
    </edge>
    <edge id="edge-14" from="cluster_node-26_node-27_node-34" to="cluster_node-28_node-53_node-55" priority="1">
        <lane id="edge-14_0" index="0" speed="11.00" length="82.24" width="5.00" customShape="1" shape="140.55,8127.81 140.06,8127.81 139.56,8127.80 139.06,8127.80 138.57,8127.79 138.07,8127.79 137.57,8127.79 137.08,8127.78 136.58,8127.78 136.08,8127.77 135.58,8127.77 135.09,8127.76 134.59,8127.76 134.09,8127.75 133.60,8127.75 133.10,8127.75 132.60,8127.74 132.10,8127.74 131.61,8127.73 131.11,8127.73 130.61,8127.72 130.11,8127.72 129.62,8127.71 129.12,8127.71 128.62,8127.70 128.13,8127.70 127.63,8127.69 127.13,8127.69 126.63,8127.68 126.14,8127.68 125.64,8127.67 125.14,8127.67 124.65,8127.66 124.15,8127.66 123.65,8127.65 123.15,8127.65 122.66,8127.64 122.16,8127.64 121.66,8127.63 121.17,8127.63 120.67,8127.62 120.17,8127.62 119.67,8127.61 119.18,8127.61 118.68,8127.60 118.18,8127.60 117.69,8127.59 117.19,8127.59 116.69,8127.58 116.19,8127.58 115.70,8127.57 115.20,8127.57 114.70,8127.56 114.20,8127.56 113.71,8127.55 113.21,8127.54 112.71,8127.54 112.22,8127.53 111.72,8127.53 111.22,8127.52 110.72,8127.52 110.23,8127.51 109.73,8127.51 109.23,8127.50 108.74,8127.49 108.24,8127.49 107.74,8127.48 107.24,8127.48 106.75,8127.47 106.25,8127.47 105.75,8127.46 105.26,8127.45 104.76,8127.45 104.26,8127.44 103.76,8127.44 103.27,8127.43 102.77,8127.42 102.27,8127.42 101.78,8127.41 101.28,8127.41 100.78,8127.40 100.28,8127.39 99.79,8127.39 99.29,8127.38 98.79,8127.38 98.30,8127.37 97.80,8127.36 97.30,8127.36 96.80,8127.35 96.31,8127.34 95.81,8127.34 95.31,8127.33 94.82,8127.33 94.32,8127.32 93.82,8127.31 93.32,8127.31 92.83,8127.30 92.33,8127.29 91.83,8127.29 91.33,8127.28 90.84,8127.27 90.34,8127.27 89.84,8127.26 89.35,8127.25 88.85,8127.25 88.35,8127.24 87.85,8127.23 87.36,8127.23 86.86,8127.22 86.36,8127.21 85.87,8127.21 85.37,8127.20 84.87,8127.19 84.37,8127.19 83.88,8127.18 83.38,8127.17 82.88,8127.17 82.39,8127.16 81.89,8127.15 81.39,8127.15 80.89,8127.14 80.40,8127.13 79.90,8127.12 79.40,8127.12 78.91,8127.11 78.41,8127.10 77.91,8127.10 77.41,8127.09 76.92,8127.08 76.42,8127.07 75.92,8127.07 75.43,8127.06 74.93,8127.05 74.43,8127.05 73.93,8127.04 73.44,8127.03 72.94,8127.02 72.44,8127.02 71.95,8127.01 71.45,8127.00 70.95,8126.99 70.45,8126.99 69.96,8126.98 69.46,8126.97 68.96,8126.96 68.47,8126.96 67.97,8126.95 67.47,8126.94 66.97,8126.93 66.48,8126.93 65.98,8126.92 65.48,8126.91 64.99,8126.90 64.49,8126.89 63.99,8126.89 63.49,8126.88 63.00,8126.87 62.50,8126.86 62.00,8126.85 61.51,8126.85 61.01,8126.84 60.51,8126.83 60.01,8126.82 59.52,8126.82 59.02,8126.81 58.52,8126.80 58.31,8126.80"/>
    </edge>
    <edge id="edge-15" from="cluster_node-29_node-31_node-38" to="cluster_node-17_node-30_node-36" priority="1">
        <lane id="edge-15_0" index="0" speed="11.00" length="1.17" width="5.00" customShape="1" shape="152.81,8124.95 153.09,8124.96 153.58,8124.96 153.98,8124.97"/>
    </edge>
    <edge id="edge-16" from="cluster_node-29_node-31_node-38" to="cluster_node-21_node-24_node-32" priority="1">
        <lane id="edge-16_0" index="0" speed="11.00" length="0.20" width="5.00" customShape="1" shape="146.06,8120.89 146.19,8120.74"/>
    </edge>
    <edge id="edge-17" from="cluster_node-19_node-20_node-33_node-35" to="cluster_node-26_node-27_node-34" priority="1">
        <lane id="edge-17_0" index="0" speed="11.00" length="0.20" width="5.00" customShape="1" shape="151.68,8125.32 151.51,8125.42"/>
    </edge>
    <edge id="edge-18" from="cluster_node-19_node-20_node-33_node-35" to="cluster_node-17_node-30_node-36" priority="1">
        <lane id="edge-18_0" index="0" speed="11.00" length="0.20" width="5.00" customShape="1" shape="156.94,8124.99 157.14,8124.99"/>
    </edge>
    <edge id="edge-19" from="cluster_node-37_node-44_node-48" to="cluster_node-29_node-31_node-38" priority="1">
        <lane id="edge-19_0" index="0" speed="11.00" length="80.67" width="5.00" customShape="1" shape="59.77,8123.85 60.23,8123.86 60.72,8123.87 61.22,8123.87 61.72,8123.88 62.22,8123.89 62.72,8123.89 63.22,8123.90 63.71,8123.91 64.21,8123.92 64.71,8123.92 65.21,8123.93 65.71,8123.94 66.20,8123.94 66.70,8123.95 67.20,8123.96 67.70,8123.96 68.20,8123.97 68.70,8123.98 69.19,8123.99 69.69,8123.99 70.19,8124.00 70.69,8124.01 71.19,8124.01 71.69,8124.02 72.18,8124.03 72.68,8124.03 73.18,8124.04 73.68,8124.05 74.18,8124.05 74.67,8124.06 75.17,8124.07 75.67,8124.07 76.17,8124.08 76.67,8124.09 77.17,8124.09 77.66,8124.10 78.16,8124.11 78.66,8124.11 79.16,8124.12 79.66,8124.13 80.15,8124.13 80.65,8124.14 81.15,8124.15 81.65,8124.15 82.15,8124.16 82.65,8124.17 83.14,8124.17 83.64,8124.18 84.14,8124.19 84.64,8124.19 85.14,8124.20 85.64,8124.21 86.13,8124.21 86.63,8124.22 87.13,8124.22 87.63,8124.23 88.13,8124.24 88.62,8124.24 89.12,8124.25 89.62,8124.26 90.12,8124.26 90.62,8124.27 91.12,8124.28 91.61,8124.28 92.11,8124.29 92.61,8124.29 93.11,8124.30 93.61,8124.31 94.11,8124.31 94.60,8124.32 95.10,8124.33 95.60,8124.33 96.10,8124.34 96.60,8124.34 97.09,8124.35 97.59,8124.36 98.09,8124.36 98.59,8124.37 99.09,8124.38 99.59,8124.38 100.08,8124.39 100.58,8124.39 101.08,8124.40 101.58,8124.41 102.08,8124.41 102.57,8124.42 103.07,8124.42 103.57,8124.43 104.07,8124.44 104.57,8124.44 105.07,8124.45 105.56,8124.45 106.06,8124.46 106.56,8124.47 107.06,8124.47 107.56,8124.48 108.06,8124.48 108.55,8124.49 109.05,8124.49 109.55,8124.50 110.05,8124.51 110.55,8124.51 111.04,8124.52 111.54,8124.52 112.04,8124.53 112.54,8124.54 113.04,8124.54 113.54,8124.55 114.03,8124.55 114.53,8124.56 115.03,8124.56 115.53,8124.57 116.03,8124.57 116.53,8124.58 117.02,8124.59 117.52,8124.59 118.02,8124.60 118.52,8124.60 119.02,8124.61 119.51,8124.61 120.01,8124.62 120.51,8124.63 121.01,8124.63 121.51,8124.64 122.01,8124.64 122.50,8124.65 123.00,8124.65 123.50,8124.66 124.00,8124.66 124.50,8124.67 125.00,8124.67 125.49,8124.68 125.99,8124.69 126.49,8124.69 126.99,8124.70 127.49,8124.70 127.98,8124.71 128.48,8124.71 128.98,8124.72 129.48,8124.72 129.98,8124.73 130.48,8124.73 130.97,8124.74 131.47,8124.74 131.97,8124.75 132.47,8124.75 132.97,8124.76 133.47,8124.76 133.96,8124.77 134.46,8124.77 134.96,8124.78 135.46,8124.79 135.96,8124.79 136.45,8124.80 136.95,8124.80 137.45,8124.81 137.95,8124.81 138.45,8124.82 138.95,8124.82 139.44,8124.83 139.94,8124.83 140.43,8124.84"/>
    </edge>
    <edge id="edge-2" from="node-3" to="cluster_node-4_node-69_node-73" priority="1">
        <lane id="edge-2_0" index="0" speed="11.00" length="111.05" width="5.00" customShape="1" shape="-30.56,8267.35 -30.07,8267.35 -29.58,8267.35 -29.09,8267.35 -28.59,8267.34 -28.10,8267.34 -27.61,8267.34 -27.12,8267.34 -26.62,8267.34 -26.13,8267.34 -25.64,8267.34 -25.15,8267.34 -24.65,8267.34 -24.16,8267.34 -23.67,8267.34 -23.18,8267.34 -22.69,8267.34 -22.19,8267.34 -21.70,8267.34 -21.21,8267.34 -20.72,8267.34 -20.22,8267.34 -19.73,8267.34 -19.24,8267.34 -18.75,8267.35 -18.25,8267.35 -17.76,8267.35 -17.27,8267.35 -16.78,8267.35 -16.28,8267.36 -15.79,8267.36 -15.30,8267.36 -14.81,8267.36 -14.31,8267.37 -13.82,8267.37 -13.33,8267.37 -12.84,8267.38 -12.34,8267.38 -11.85,8267.38 -11.36,8267.39 -10.87,8267.39 -10.37,8267.39 -9.88,8267.40 -9.38,8267.40 -8.89,8267.40 -8.39,8267.41 -7.89,8267.41 -7.40,8267.42 -6.90,8267.42 -6.41,8267.42 -5.91,8267.43 -5.42,8267.43 -4.92,8267.44 -4.42,8267.44 -3.93,8267.45 -3.43,8267.45 -2.94,8267.45 -2.44,8267.46 -1.94,8267.46 -1.45,8267.47 -0.95,8267.47 -0.46,8267.48 0.04,8267.48 0.54,8267.49 1.03,8267.49 1.53,8267.50 2.02,8267.50 2.52,8267.51 3.01,8267.51 3.51,8267.52 4.01,8267.52 4.50,8267.53 5.00,8267.54 5.49,8267.54 5.99,8267.55 6.49,8267.55 6.98,8267.56 7.48,8267.56 7.97,8267.57 8.47,8267.58 8.97,8267.58 9.46,8267.59 9.96,8267.60 10.45,8267.60 10.95,8267.61 11.44,8267.61 11.94,8267.62 12.44,8267.63 12.93,8267.63 13.43,8267.64 13.92,8267.65 14.42,8267.65 14.92,8267.66 15.41,8267.67 15.91,8267.68 16.40,8267.68 16.90,8267.69 17.40,8267.70 17.89,8267.70 18.39,8267.71 18.88,8267.72 19.38,8267.73 19.87,8267.73 20.37,8267.74 20.87,8267.75 21.36,8267.76 21.86,8267.77 22.35,8267.77 22.85,8267.78 23.35,8267.79 23.84,8267.80 24.34,8267.81 24.83,8267.81 25.33,8267.82 25.82,8267.83 26.32,8267.84 26.82,8267.85 27.31,8267.86 27.81,8267.87 28.30,8267.87 28.80,8267.88 29.30,8267.89 29.79,8267.90 30.29,8267.91 30.78,8267.92 31.28,8267.93 31.77,8267.94 32.26,8267.95 32.75,8267.95 33.24,8267.96 33.73,8267.97 34.22,8267.97 34.71,8267.97 35.20,8267.96 35.69,8267.95 36.18,8267.93 36.66,8267.90 37.15,8267.86 37.64,8267.81 38.12,8267.75 38.61,8267.68 39.09,8267.59 39.57,8267.48 40.04,8267.36 40.51,8267.21 40.97,8267.05 41.42,8266.87 41.87,8266.67 42.31,8266.45 42.73,8266.21 43.14,8265.94 43.54,8265.66 43.92,8265.35 44.28,8265.02 44.62,8264.67 44.95,8264.31 45.25,8263.92 45.53,8263.52 45.78,8263.10 46.01,8262.67 46.22,8262.23 46.40,8261.77 46.56,8261.31 46.69,8260.84 46.81,8260.36 46.90,8259.88 46.97,8259.40 47.02,8258.91 47.06,8258.42 47.09,8257.94 47.10,8257.45 47.11,8256.96 47.11,8256.47 47.12,8255.97 47.12,8255.48 47.12,8254.99 47.13,8254.49 47.13,8254.00 47.13,8253.51 47.14,8253.01 47.14,8252.52 47.14,8252.03 47.15,8251.53 47.15,8251.04 47.16,8250.54 47.16,8250.05 47.16,8249.56 47.17,8249.06 47.17,8248.57 47.17,8248.08 47.18,8247.58 47.18,8247.09 47.19,8246.59 47.19,8246.10 47.19,8245.61 47.20,8245.11 47.20,8244.62 47.21,8244.13 47.21,8243.63 47.21,8243.14 47.22,8242.64 47.22,8242.15 47.23,8241.66 47.23,8241.16 47.23,8240.67 47.24,8240.18 47.24,8239.68 47.25,8239.19 47.25,8238.69 47.25,8238.20 47.26,8237.71 47.26,8237.21 47.27,8236.72 47.27,8236.23 47.27,8235.73 47.28,8235.24 47.28,8234.74 47.29,8234.25 47.29,8233.76 47.30,8233.26 47.30,8232.77 47.30,8232.28 47.31,8231.78 47.31,8231.29 47.32,8230.79 47.32,8230.26"/>
    </edge>
    <edge id="edge-20" from="node-39" to="cluster_node-40_node-43_node-45" priority="1">
        <lane id="edge-20_0" index="0" speed="11.00" length="32.69" width="5.00" customShape="1" shape="51.12,8082.56 51.12,8083.06 51.11,8083.56 51.11,8084.06 51.10,8084.56 51.10,8085.06 51.10,8085.56 51.09,8086.06 51.09,8086.56 51.08,8087.06 51.08,8087.56 51.08,8088.06 51.07,8088.56 51.07,8089.06 51.06,8089.55 51.06,8090.05 51.06,8090.55 51.05,8091.05 51.05,8091.55 51.04,8092.05 51.04,8092.55 51.04,8093.05 51.03,8093.55 51.03,8094.05 51.02,8094.55 51.02,8095.05 51.02,8095.55 51.01,8096.05 51.01,8096.55 51.00,8097.05 51.00,8097.55 51.00,8098.05 50.99,8098.55 50.99,8099.05 50.98,8099.55 50.98,8100.05 50.98,8100.55 50.97,8101.04 50.97,8101.54 50.96,8102.04 50.96,8102.54 50.96,8103.04 50.95,8103.54 50.95,8104.04 50.94,8104.54 50.94,8105.04 50.94,8105.54 50.93,8106.04 50.93,8106.54 50.92,8107.04 50.92,8107.54 50.92,8108.04 50.91,8108.54 50.91,8109.04 50.90,8109.54 50.90,8110.04 50.90,8110.54 50.89,8111.04 50.89,8111.54 50.88,8112.04 50.88,8112.54 50.88,8113.03 50.87,8113.53 50.87,8114.03 50.86,8114.53 50.86,8115.03 50.86,8115.25"/>
    </edge>
    <edge id="edge-21" from="cluster_node-41_node-50_node-56" to="node-42" priority="1">
        <lane id="edge-21_0" index="0" speed="11.00" length="32.83" width="5.00" customShape="1" shape="48.49,8115.29 48.50,8114.80 48.50,8114.30 48.51,8113.80 48.51,8113.31 48.52,8112.81 48.52,8112.31 48.53,8111.81 48.53,8111.32 48.54,8110.82 48.54,8110.32 48.55,8109.82 48.55,8109.33 48.56,8108.83 48.56,8108.33 48.56,8107.83 48.57,8107.34 48.57,8106.84 48.58,8106.34 48.58,8105.84 48.59,8105.35 48.59,8104.85 48.60,8104.35 48.60,8103.85 48.61,8103.36 48.61,8102.86 48.62,8102.36 48.62,8101.86 48.62,8101.37 48.63,8100.87 48.63,8100.37 48.64,8099.87 48.64,8099.38 48.65,8098.88 48.65,8098.38 48.66,8097.88 48.66,8097.39 48.66,8096.89 48.67,8096.39 48.67,8095.89 48.68,8095.40 48.68,8094.90 48.69,8094.40 48.69,8093.90 48.70,8093.41 48.70,8092.91 48.70,8092.41 48.71,8091.91 48.71,8091.42 48.72,8090.92 48.72,8090.42 48.73,8089.92 48.73,8089.43 48.73,8088.93 48.74,8088.43 48.74,8087.93 48.75,8087.44 48.75,8086.94 48.76,8086.44 48.76,8085.94 48.77,8085.45 48.77,8084.95 48.77,8084.45 48.78,8083.95 48.78,8083.46 48.79,8082.96 48.79,8082.46"/>
    </edge>
    <edge id="edge-22" from="cluster_node-40_node-43_node-45" to="cluster_node-37_node-44_node-48" priority="1">
        <lane id="edge-22_0" index="0" speed="11.00" length="0.20" width="5.00" customShape="1" shape="55.04,8120.88 55.19,8121.00"/>
    </edge>
    <edge id="edge-23" from="cluster_node-40_node-43_node-45" to="cluster_node-46_node-51_node-54" priority="1">
        <lane id="edge-23_0" index="0" speed="11.00" length="6.27" width="5.00" customShape="1" shape="50.75,8127.33 50.75,8127.51 50.75,8128.01 50.74,8128.51 50.74,8129.01 50.73,8129.51 50.73,8130.01 50.72,8130.51 50.72,8131.01 50.71,8131.51 50.71,8132.00 50.70,8132.50 50.70,8133.00 50.69,8133.50 50.69,8133.61"/>
    </edge>
    <edge id="edge-24" from="cluster_node-47_node-49_node-58" to="cluster_node-37_node-44_node-48" priority="1">
        <lane id="edge-24_0" index="0" speed="11.00" length="0.20" width="5.00" customShape="1" shape="52.19,8124.35 52.39,8124.32"/>
    </edge>
    <edge id="edge-25" from="cluster_node-47_node-49_node-58" to="cluster_node-41_node-50_node-56" priority="1">
        <lane id="edge-25_0" index="0" speed="11.00" length="0.20" width="5.00" customShape="1" shape="48.39,8125.65 48.40,8125.45"/>
    </edge>
    <edge id="edge-26" from="cluster_node-46_node-51_node-54" to="cluster_node-52_node-67_node-71" priority="1">