<?xml version="1.0" encoding="UTF-8"?>

<!-- generated on 2021-08-12 19:15:26 by Eclipse SUMO netedit Version 1.9.2
<configuration xmlns:xsi="http://www.w3.org/2001/XMLSchema-instance" xsi:noNamespaceSchemaLocation="http://sumo.dlr.de/xsd/netconvertConfiguration.xsd">

    <input>
        <sumo-net-file value="/home/kyber/huawei/smarts/SMARTS/scenarios/waymo/map.net.xml"/>
    </input>

    <output>
        <output-file value="/home/kyber/huawei/smarts/SMARTS/scenarios/waymo/map.net.xml"/>
    </output>

    <processing>
        <geometry.min-radius.fix.railways value="false"/>
        <geometry.max-grade.fix value="false"/>
        <offset.disable-normalization value="true"/>
        <lefthand value="false"/>
    </processing>

    <junctions>
        <no-turnarounds value="true"/>
        <junctions.corner-detail value="5"/>
        <junctions.limit-turn-speed value="5.5"/>
        <rectangular-lane-cut value="false"/>
    </junctions>

    <pedestrian>
        <walkingareas value="false"/>
    </pedestrian>

    <report>
        <aggregate-warnings value="5"/>
    </report>

</configuration>
-->

<net version="1.9" junctionCornerDetail="5" limitTurnSpeed="5.50" xmlns:xsi="http://www.w3.org/2001/XMLSchema-instance" xsi:noNamespaceSchemaLocation="http://sumo.dlr.de/xsd/net_file.xsd">

    <location netOffset="0.00,0.00" convBoundary="-30.56,8082.46,250.52,8268.53" origBoundary="-30.56,8082.46,256.23,8325.51" projParameter="!"/>

    <edge id=":cluster_gneJ0_gneJ1_gneJ2_0" function="internal">
        <lane id=":cluster_gneJ0_gneJ1_gneJ2_0_0" index="0" speed="9.72" length="21.24" width="4.00" shape="50.12,8257.69 49.21,8263.39 46.66,8267.44 42.47,8269.81 36.64,8270.53"/>
    </edge>
    <edge id=":cluster_gneJ0_gneJ1_gneJ2_1" function="internal">
        <lane id=":cluster_gneJ0_gneJ1_gneJ2_1_0" index="0" speed="8.21" length="14.78" width="4.00" shape="36.72,8266.53 40.78,8266.04 43.70,8264.39 45.48,8261.59 46.12,8257.63"/>
    </edge>
    <edge id=":cluster_node-4_node-57_node-60_0" function="internal">
        <lane id=":cluster_node-4_node-57_node-60_0_0" index="0" speed="6.83" length="9.71" width="4.00" shape="56.66,8222.04 54.02,8222.40 52.11,8223.52 50.95,8225.38 50.54,8227.99"/>
    </edge>
    <edge id=":cluster_node-4_node-57_node-60_1" function="internal">
        <lane id=":cluster_node-4_node-57_node-60_1_0" index="0" speed="8.64" length="16.44" width="4.00" shape="56.66,8222.04 52.32,8221.37 49.21,8219.41 47.35,8216.14 46.73,8211.58"/>
    </edge>
    <edge id=":cluster_node-4_node-57_node-60_2" function="internal">
        <lane id=":cluster_node-4_node-57_node-60_2_0" index="0" speed="6.92" length="10.07" width="4.00" shape="50.73,8211.58 51.10,8214.42 52.23,8216.45 54.10,8217.67 56.73,8218.08"/>
    </edge>
    <edge id=":cluster_node-4_node-57_node-60_3" function="internal">
        <lane id=":cluster_node-4_node-57_node-60_3_0" index="0" speed="13.89" length="16.41" width="4.00" shape="50.73,8211.58 50.54,8227.99"/>
    </edge>
    <edge id=":cluster_node-4_node-57_node-60_4" function="internal">
        <lane id=":cluster_node-4_node-57_node-60_4_0" index="0" speed="13.89" length="16.35" width="4.00" shape="46.54,8227.93 46.73,8211.58"/>
    </edge>
    <edge id=":cluster_node-4_node-57_node-60_5" function="internal">
        <lane id=":cluster_node-4_node-57_node-60_5_0" index="0" speed="8.59" length="6.99" width="4.00" shape="46.54,8227.93 47.23,8223.61 48.62,8221.39"/>
    </edge>
    <edge id=":cluster_node-4_node-57_node-60_6" function="internal">
        <lane id=":cluster_node-4_node-57_node-60_6_0" index="0" speed="8.59" length="9.13" width="4.00" shape="48.62,8221.39 49.16,8220.53 52.32,8218.68 56.73,8218.08"/>
    </edge>

    <edge id="-gneE0" from="cluster_gneJ0_gneJ1_gneJ2" to="node-3" priority="-1" shape="36.68,8268.53 -30.56,8267.35">
        <lane id="-gneE0_0" index="0" speed="13.89" length="67.25" width="4.00" shape="36.64,8270.53 -30.60,8269.35"/>
    </edge>
    <edge id="-gneE3" from="cluster_node-4_node-57_node-60" to="cluster_gneJ0_gneJ1_gneJ2" priority="-1" shape="48.55,8227.22 48.12,8257.66">
        <lane id="-gneE3_0" index="0" speed="13.89" length="29.71" width="4.00" shape="50.54,8227.99 50.12,8257.69"/>
    </edge>
    <edge id="-gneE4" from="node-42" to="cluster_node-4_node-57_node-60" priority="-1" shape="48.79,8082.46 48.73,8211.58">
        <lane id="-gneE4_0" index="0" speed="13.89" length="129.12" width="4.00" shape="50.79,8082.46 50.73,8211.58"/>
    </edge>
    <edge id="-gneE5" from="node-59" to="cluster_node-4_node-57_node-60" priority="-1" shape="250.52,8220.73 56.67,8220.04">
        <lane id="-gneE5_0" index="0" speed="13.89" length="193.85" width="4.00" shape="250.51,8222.73 56.66,8222.04"/>
    </edge>
    <edge id="gneE0" from="node-3" to="cluster_gneJ0_gneJ1_gneJ2" priority="-1" shape="-30.56,8267.35 36.68,8268.53">
        <lane id="gneE0_0" index="0" speed="13.89" length="67.25" width="4.00" shape="-30.52,8265.35 36.72,8266.53"/>
    </edge>
    <edge id="gneE3" from="cluster_gneJ0_gneJ1_gneJ2" to="cluster_node-4_node-57_node-60" priority="-1" shape="48.12,8257.66 48.55,8227.22">
        <lane id="gneE3_0" index="0" speed="13.89" length="29.71" width="4.00" shape="46.12,8257.63 46.54,8227.93"/>
    </edge>
    <edge id="gneE4" from="cluster_node-4_node-57_node-60" to="node-42" priority="-1" shape="48.73,8211.58 48.79,8082.46">
        <lane id="gneE4_0" index="0" speed="13.89" length="129.12" width="4.00" shape="46.73,8211.58 46.79,8082.46"/>
    </edge>
    <edge id="gneE5" from="cluster_node-4_node-57_node-60" to="node-59" priority="-1" shape="56.72,8220.08 250.52,8220.73">
        <lane id="gneE5_0" index="0" speed="13.89" length="193.80" width="4.00" shape="56.73,8218.08 250.53,8218.73"/>
    </edge>

    <tlLogic id="cluster_node-4_node-57_node-60" type="static" programID="0" offset="0">
        <phase duration="42" state="GgsrGG"/>
        <phase duration="3"  state="yysryy"/>
        <phase duration="42" state="rrGGGr"/>
        <phase duration="3"  state="rryyyr"/>
    </tlLogic>

    <junction id="cluster_gneJ0_gneJ1_gneJ2" type="priority" x="43.46" y="8263.73" incLanes="-gneE3_0 gneE0_0" intLanes=":cluster_gneJ0_gneJ1_gneJ2_0_0 :cluster_gneJ0_gneJ1_gneJ2_1_0" shape="52.12,8257.72 44.12,8257.60 43.89,8259.76 43.26,8261.51 42.23,8262.86 40.80,8263.82 38.97,8264.37 36.75,8264.53 36.61,8272.53 41.29,8272.19 45.13,8271.00 48.14,8268.96 50.30,8266.07 51.63,8262.32">
        <request index="0" response="00" foes="00" cont="0"/>
        <request index="1" response="00" foes="00" cont="0"/>
    </junction>
    <junction id="cluster_node-4_node-57_node-60" type="traffic_light_right_on_red" x="51.33" y="8219.93" incLanes="-gneE5_0 -gneE4_0 gneE3_0" intLanes=":cluster_node-4_node-57_node-60_0_0 :cluster_node-4_node-57_node-60_1_0 :cluster_node-4_node-57_node-60_2_0 :cluster_node-4_node-57_node-60_3_0 :cluster_node-4_node-57_node-60_4_0 :cluster_node-4_node-57_node-60_6_0" shape="56.71,8224.04 56.73,8216.08 54.51,8215.57 53.73,8214.95 53.17,8214.07 52.84,8212.95 52.73,8211.58 44.73,8211.58 44.54,8227.90 52.54,8228.01 53.03,8225.80 53.61,8225.03 54.42,8224.48 55.45,8224.15">
        <request index="0" response="001000" foes="001000" cont="0"/>
        <request index="1" response="111000" foes="111000" cont="0"/>
        <request index="2" response="000000" foes="100000" cont="0"/>
        <request index="3" response="000000" foes="100011" cont="0"/>
        <request index="4" response="000000" foes="000010" cont="0"/>
        <request index="5" response="001100" foes="001110" cont="1"/>
    </junction>
    <junction id="node-3" type="dead_end" x="-30.56" y="8267.35" incLanes="-gneE0_0" intLanes="" shape="-30.56,8267.35 -30.63,8271.35 -30.56,8267.35"/>
    <junction id="node-42" type="dead_end" x="48.79" y="8082.46" incLanes="gneE4_0" intLanes="" shape="48.79,8082.46 44.79,8082.46 48.79,8082.46"/>
    <junction id="node-59" type="dead_end" x="250.52" y="8220.73" incLanes="gneE5_0" intLanes="" shape="250.52,8220.73 250.53,8216.73 250.52,8220.73"/>

    <junction id=":cluster_node-4_node-57_node-60_6_0" type="internal" x="48.62" y="8221.39" incLanes=":cluster_node-4_node-57_node-60_5_0 -gneE4_0" intLanes=":cluster_node-4_node-57_node-60_1_0 :cluster_node-4_node-57_node-60_2_0 :cluster_node-4_node-57_node-60_3_0"/>

    <connection from="-gneE3" to="-gneE0" fromLane="0" toLane="0" via=":cluster_gneJ0_gneJ1_gneJ2_0_0" dir="l" state="M"/>
    <connection from="-gneE4" to="gneE5" fromLane="0" toLane="0" via=":cluster_node-4_node-57_node-60_2_0" tl="cluster_node-4_node-57_node-60" linkIndex="4" dir="r" state="O"/>
    <connection from="-gneE4" to="-gneE3" fromLane="0" toLane="0" via=":cluster_node-4_node-57_node-60_3_0" tl="cluster_node-4_node-57_node-60" linkIndex="5" dir="s" state="O"/>
    <connection from="-gneE5" to="-gneE3" fromLane="0" toLane="0" via=":cluster_node-4_node-57_node-60_0_0" tl="cluster_node-4_node-57_node-60" linkIndex="2" dir="r" state="o"/>
    <connection from="-gneE5" to="gneE4" fromLane="0" toLane="0" via=":cluster_node-4_node-57_node-60_1_0" tl="cluster_node-4_node-57_node-60" linkIndex="3" dir="l" state="o"/>
    <connection from="gneE0" to="gneE3" fromLane="0" toLane="0" via=":cluster_gneJ0_gneJ1_gneJ2_1_0" dir="r" state="M"/>
    <connection from="gneE3" to="gneE4" fromLane="0" toLane="0" via=":cluster_node-4_node-57_node-60_4_0" tl="cluster_node-4_node-57_node-60" linkIndex="0" dir="s" state="O"/>
    <connection from="gneE3" to="gneE5" fromLane="0" toLane="0" via=":cluster_node-4_node-57_node-60_5_0" tl="cluster_node-4_node-57_node-60" linkIndex="1" dir="l" state="o"/>

    <connection from=":cluster_gneJ0_gneJ1_gneJ2_0" to="-gneE0" fromLane="0" toLane="0" dir="l" state="M"/>
    <connection from=":cluster_gneJ0_gneJ1_gneJ2_1" to="gneE3" fromLane="0" toLane="0" dir="r" state="M"/>
    <connection from=":cluster_node-4_node-57_node-60_0" to="-gneE3" fromLane="0" toLane="0" dir="r" state="M"/>
    <connection from=":cluster_node-4_node-57_node-60_1" to="gneE4" fromLane="0" toLane="0" dir="l" state="M"/>
    <connection from=":cluster_node-4_node-57_node-60_2" to="gneE5" fromLane="0" toLane="0" dir="r" state="M"/>
    <connection from=":cluster_node-4_node-57_node-60_3" to="-gneE3" fromLane="0" toLane="0" dir="s" state="M"/>
    <connection from=":cluster_node-4_node-57_node-60_4" to="gneE4" fromLane="0" toLane="0" dir="s" state="M"/>
    <connection from=":cluster_node-4_node-57_node-60_5" to="gneE5" fromLane="0" toLane="0" via=":cluster_node-4_node-57_node-60_6_0" dir="l" state="m"/>
    <connection from=":cluster_node-4_node-57_node-60_6" to="gneE5" fromLane="0" toLane="0" dir="l" state="M"/>

</net>


