<?xml version="1.0" encoding="UTF-8"?>

<!-- generated on 2021-08-09 16:37:46 by Eclipse SUMO netconvert Version 1.9.2
<configuration xmlns:xsi="http://www.w3.org/2001/XMLSchema-instance" xsi:noNamespaceSchemaLocation="http://sumo.dlr.de/xsd/netconvertConfiguration.xsd">

    <input>
        <node-files value="nodes-e211c9b4f68ff2c8.nod.xml"/>
        <edge-files value="edges-e211c9b4f68ff2c8.edg.xml"/>
    </input>

    <output>
        <output-file value="net-e211c9b4f68ff2c8.net.xml"/>
    </output>

    <processing>
        <offset.disable-normalization value="true"/>
    </processing>

    <report>
        <aggregate-warnings value="5"/>
    </report>

</configuration>
-->

<net version="1.9" junctionCornerDetail="5" limitTurnSpeed="5.50" xmlns:xsi="http://www.w3.org/2001/XMLSchema-instance" xsi:noNamespaceSchemaLocation="http://sumo.dlr.de/xsd/net_file.xsd">

    <location netOffset="0.00,0.00" convBoundary="-30.56,8082.46,256.23,8325.51" origBoundary="-30.56,8082.46,256.23,8325.51" projParameter="!"/>

    <edge id="edge-1" from="node-1" to="node-2" priority="1">
        <lane id="edge-1_0" index="0" speed="11.00" length="115.98" width="5.00" customShape="1" shape="49.75,8227.92 49.74,8228.42 49.73,8228.92 49.72,8229.42 49.71,8229.92 49.70,8230.42 49.70,8230.91 49.69,8231.41 49.68,8231.91 49.67,8232.41 49.66,8232.91 49.65,8233.41 49.65,8233.91 49.64,8234.41 49.63,8234.91 49.62,8235.41 49.62,8235.91 49.61,8236.40 49.61,8236.90 49.60,8237.40 49.60,8237.90 49.59,8238.40 49.59,8238.90 49.58,8239.40 49.58,8239.90 49.57,8240.40 49.57,8240.90 49.57,8241.40 49.56,8241.89 49.56,8242.39 49.56,8242.89 49.56,8243.39 49.55,8243.89 49.55,8244.39 49.55,8244.89 49.55,8245.39 49.55,8245.89 49.55,8246.39 49.55,8246.89 49.55,8247.38 49.55,8247.88 49.55,8248.38 49.55,8248.88 49.55,8249.38 49.55,8249.88 49.55,8250.38 49.56,8250.88 49.56,8251.38 49.56,8251.88 49.56,8252.38 49.57,8252.88 49.57,8253.37 49.57,8253.87 49.58,8254.37 49.58,8254.87 49.59,8255.37 49.59,8255.87 49.60,8256.37 49.60,8256.87 49.60,8257.36 49.60,8257.86 49.59,8258.36 49.57,8258.86 49.54,8259.35 49.50,8259.85 49.44,8260.34 49.36,8260.84 49.27,8261.32 49.15,8261.81 49.02,8262.29 48.87,8262.76 48.69,8263.23 48.50,8263.69 48.28,8264.13 48.04,8264.57 47.78,8265.00 47.50,8265.41 47.21,8265.81 46.89,8266.19 46.55,8266.56 46.20,8266.91 45.83,8267.24 45.44,8267.55 45.05,8267.85 44.63,8268.13 44.21,8268.39 43.77,8268.63 43.33,8268.86 42.88,8269.07 42.42,8269.25 41.95,8269.43 41.48,8269.58 41.00,8269.72 40.52,8269.85 40.03,8269.96 39.55,8270.06 39.06,8270.14 38.56,8270.22 38.07,8270.28 37.57,8270.33 37.08,8270.37 36.58,8270.41 36.09,8270.44 35.59,8270.46 35.09,8270.48 34.59,8270.49 34.10,8270.50 33.60,8270.50 33.10,8270.51 32.60,8270.51 32.10,8270.51 31.61,8270.50 31.11,8270.50 30.61,8270.50 30.11,8270.50 29.62,8270.49 29.12,8270.49 28.62,8270.49 28.12,8270.48 27.62,8270.48 27.12,8270.48 26.63,8270.47 26.13,8270.47 25.63,8270.47 25.13,8270.46 24.63,8270.46 24.13,8270.46 23.64,8270.45 23.14,8270.45 22.64,8270.45 22.14,8270.44 21.64,8270.44 21.14,8270.44 20.65,8270.43 20.15,8270.43 19.65,8270.42 19.15,8270.42 18.65,8270.42 18.16,8270.41 17.66,8270.41 17.16,8270.40 16.66,8270.40 16.16,8270.39 15.66,8270.39 15.17,8270.39 14.67,8270.38 14.17,8270.38 13.67,8270.37 13.17,8270.37 12.67,8270.36 12.18,8270.36 11.68,8270.35 11.18,8270.35 10.68,8270.34 10.18,8270.34 9.69,8270.33 9.19,8270.33 8.69,8270.32 8.19,8270.32 7.69,8270.31 7.19,8270.31 6.70,8270.30 6.20,8270.30 5.70,8270.29 5.20,8270.29 4.70,8270.28 4.20,8270.27 3.71,8270.27 3.21,8270.26 2.71,8270.26 2.21,8270.25 1.71,8270.25 1.22,8270.24 0.72,8270.23 0.22,8270.23 -0.28,8270.22 -0.78,8270.22 -1.28,8270.21 -1.77,8270.20 -2.27,8270.20 -2.77,8270.19 -3.27,8270.18 -3.77,8270.18 -4.27,8270.17 -4.76,8270.16 -5.26,8270.16 -5.76,8270.15 -6.26,8270.14 -6.76,8270.14 -7.25,8270.13 -7.75,8270.12 -8.25,8270.12 -8.75,8270.11 -9.25,8270.10 -9.75,8270.10 -10.24,8270.09 -10.74,8270.08 -11.23,8270.07 -11.73,8270.07 -12.22,8270.06 -12.72,8270.05 -13.21,8270.05 -13.71,8270.04 -14.20,8270.03 -14.70,8270.02 -15.19,8270.02 -15.69,8270.01 -16.18,8270.00 -16.68,8270.00 -17.17,8269.99 -17.67,8269.98 -18.16,8269.98 -18.66,8269.97 -19.15,8269.96 -19.65,8269.96 -20.14,8269.95 -20.64,8269.94 -21.13,8269.94 -21.63,8269.93 -22.12,8269.93 -22.62,8269.92 -23.11,8269.92 -23.60,8269.91 -24.10,8269.91 -24.59,8269.90 -25.09,8269.90 -25.58,8269.90 -26.08,8269.89 -26.57,8269.89 -27.07,8269.89 -27.56,8269.88 -28.06,8269.88 -28.55,8269.88 -29.05,8269.88"/>
    </edge>
    <edge id="edge-10" from="node-19" to="node-20" priority="1" shape="152.04,8120.57 152.14,8120.67">
        <lane id="edge-10_0" index="0" speed="11.00" length="0.14" width="5.00" shape="153.81,8118.80 153.91,8118.90"/>
    </edge>
    <edge id="edge-11" from="node-21" to="node-22" priority="1">
        <lane id="edge-11_0" index="0" speed="11.00" length="32.85" width="5.00" customShape="1" shape="149.43,8118.51 149.43,8118.01 149.43,8117.51 149.44,8117.01 149.44,8116.52 149.44,8116.02 149.45,8115.52 149.45,8115.02 149.45,8114.53 149.45,8114.03 149.46,8113.53 149.46,8113.03 149.46,8112.53 149.47,8112.04 149.47,8111.54 149.47,8111.04 149.48,8110.54 149.48,8110.05 149.48,8109.55 149.49,8109.05 149.49,8108.55 149.49,8108.06 149.50,8107.56 149.50,8107.06 149.50,8106.56 149.51,8106.07 149.51,8105.57 149.51,8105.07 149.52,8104.57 149.52,8104.07 149.53,8103.58 149.53,8103.08 149.53,8102.58 149.54,8102.08 149.54,8101.59 149.54,8101.09 149.55,8100.59 149.55,8100.09 149.55,8099.60 149.56,8099.10 149.56,8098.60 149.57,8098.10 149.57,8097.61 149.57,8097.11 149.58,8096.61 149.58,8096.11 149.59,8095.62 149.59,8095.12 149.59,8094.62 149.60,8094.12 149.60,8093.62 149.60,8093.13 149.61,8092.63 149.61,8092.13 149.62,8091.63 149.62,8091.14 149.63,8090.64 149.63,8090.14 149.63,8089.64 149.64,8089.15 149.64,8088.65 149.65,8088.15 149.65,8087.65 149.65,8087.16 149.66,8086.66 149.66,8086.16 149.67,8085.66"/>
    </edge>
    <edge id="edge-12" from="node-23" to="node-24" priority="1">
        <lane id="edge-12_0" index="0" speed="11.00" length="15.13" width="5.00" customShape="1" shape="158.30,8127.95 157.81,8127.94 157.32,8127.93 156.83,8127.91 156.35,8127.88 155.86,8127.83 155.38,8127.75 154.90,8127.65 154.43,8127.53 153.97,8127.37 153.51,8127.19 153.08,8126.97 152.66,8126.72 152.26,8126.44 151.88,8126.14 151.52,8125.80 151.19,8125.44 150.90,8125.05 150.63,8124.65 150.39,8124.22 150.18,8123.78 150.00,8123.33 149.84,8122.86 149.72,8122.39 149.62,8121.91 149.55,8121.43 149.49,8120.95 149.46,8120.46 149.44,8119.97 149.43,8119.48 149.43,8118.99 149.43,8118.51"/>
    </edge>
    <edge id="edge-13" from="node-25" to="node-26" priority="1">
        <lane id="edge-13_0" index="0" speed="11.00" length="16.25" width="5.00" customShape="1" shape="158.30,8127.95 157.81,8127.94 157.32,8127.94 156.84,8127.94 156.35,8127.93 155.86,8127.93 155.38,8127.92 154.89,8127.92 154.40,8127.92 153.91,8127.91 153.43,8127.91 152.94,8127.91 152.45,8127.90 151.97,8127.90 151.48,8127.90 150.99,8127.89 150.51,8127.89 150.01,8127.89 149.51,8127.88 149.01,8127.88 148.52,8127.87 148.02,8127.87 147.52,8127.87 147.02,8127.86 146.53,8127.86 146.03,8127.86 145.53,8127.85 145.03,8127.85 144.54,8127.84 144.04,8127.84 143.54,8127.84 143.04,8127.83 142.54,8127.83 142.05,8127.82"/>
    </edge>
    <edge id="edge-14" from="node-27" to="node-28" priority="1">
        <lane id="edge-14_0" index="0" speed="11.00" length="86.02" width="5.00" customShape="1" shape="142.05,8127.82 141.55,8127.82 141.05,8127.81 140.56,8127.81 140.06,8127.81 139.56,8127.80 139.06,8127.80 138.57,8127.79 138.07,8127.79 137.57,8127.79 137.08,8127.78 136.58,8127.78 136.08,8127.77 135.58,8127.77 135.09,8127.76 134.59,8127.76 134.09,8127.75 133.60,8127.75 133.10,8127.75 132.60,8127.74 132.10,8127.74 131.61,8127.73 131.11,8127.73 130.61,8127.72 130.11,8127.72 129.62,8127.71 129.12,8127.71 128.62,8127.70 128.13,8127.70 127.63,8127.69 127.13,8127.69 126.63,8127.68 126.14,8127.68 125.64,8127.67 125.14,8127.67 124.65,8127.66 124.15,8127.66 123.65,8127.65 123.15,8127.65 122.66,8127.64 122.16,8127.64 121.66,8127.63 121.17,8127.63 120.67,8127.62 120.17,8127.62 119.67,8127.61 119.18,8127.61 118.68,8127.60 118.18,8127.60 117.69,8127.59 117.19,8127.59 116.69,8127.58 116.19,8127.58 115.70,8127.57 115.20,8127.57 114.70,8127.56 114.20,8127.56 113.71,8127.55 113.21,8127.54 112.71,8127.54 112.22,8127.53 111.72,8127.53 111.22,8127.52 110.72,8127.52 110.23,8127.51 109.73,8127.51 109.23,8127.50 108.74,8127.49 108.24,8127.49 107.74,8127.48 107.24,8127.48 106.75,8127.47 106.25,8127.47 105.75,8127.46 105.26,8127.45 104.76,8127.45 104.26,8127.44 103.76,8127.44 103.27,8127.43 102.77,8127.42 102.27,8127.42 101.78,8127.41 101.28,8127.41 100.78,8127.40 100.28,8127.39 99.79,8127.39 99.29,8127.38 98.79,8127.38 98.30,8127.37 97.80,8127.36 97.30,8127.36 96.80,8127.35 96.31,8127.34 95.81,8127.34 95.31,8127.33 94.82,8127.33 94.32,8127.32 93.82,8127.31 93.32,8127.31 92.83,8127.30 92.33,8127.29 91.83,8127.29 91.33,8127.28 90.84,8127.27 90.34,8127.27 89.84,8127.26 89.35,8127.25 88.85,8127.25 88.35,8127.24 87.85,8127.23 87.36,8127.23 86.86,8127.22 86.36,8127.21 85.87,8127.21 85.37,8127.20 84.87,8127.19 84.37,8127.19 83.88,8127.18 83.38,8127.17 82.88,8127.17 82.39,8127.16 81.89,8127.15 81.39,8127.15 80.89,8127.14 80.40,8127.13 79.90,8127.12 79.40,8127.12 78.91,8127.11 78.41,8127.10 77.91,8127.10 77.41,8127.09 76.92,8127.08 76.42,8127.07 75.92,8127.07 75.43,8127.06 74.93,8127.05 74.43,8127.05 73.93,8127.04 73.44,8127.03 72.94,8127.02 72.44,8127.02 71.95,8127.01 71.45,8127.00 70.95,8126.99 70.45,8126.99 69.96,8126.98 69.46,8126.97 68.96,8126.96 68.47,8126.96 67.97,8126.95 67.47,8126.94 66.97,8126.93 66.48,8126.93 65.98,8126.92 65.48,8126.91 64.99,8126.90 64.49,8126.89 63.99,8126.89 63.49,8126.88 63.00,8126.87 62.50,8126.86 62.00,8126.85 61.51,8126.85 61.01,8126.84 60.51,8126.83 60.01,8126.82 59.52,8126.82 59.02,8126.81 58.52,8126.80 58.03,8126.79 57.53,8126.78 57.03,8126.77 56.53,8126.77 56.04,8126.76"/>
    </edge>
    <edge id="edge-15" from="node-29" to="node-30" priority="1">
        <lane id="edge-15_0" index="0" speed="11.00" length="16.55" width="5.00" customShape="1" shape="141.94,8124.85 142.42,8124.86 142.90,8124.86 143.39,8124.87 143.87,8124.87 144.36,8124.87 144.84,8124.88 145.32,8124.88 145.81,8124.89 146.29,8124.89 146.78,8124.90 147.26,8124.90 147.74,8124.91 148.23,8124.91 148.71,8124.92 149.19,8124.92 149.68,8124.93 150.16,8124.93 150.65,8124.93 151.13,8124.94 151.62,8124.94 152.11,8124.95 152.60,8124.95 153.09,8124.96 153.58,8124.96 154.07,8124.97 154.56,8124.97 155.05,8124.98 155.54,8124.98 156.03,8124.98 156.52,8124.99 157.01,8124.99 157.50,8125.00 157.99,8125.00 158.48,8125.01"/>
    </edge>
    <edge id="edge-16" from="node-31" to="node-32" priority="1">
        <lane id="edge-16_0" index="0" speed="11.00" length="11.49" width="5.00" customShape="1" shape="141.94,8124.85 142.44,8124.85 142.93,8124.85 143.43,8124.84 143.93,8124.82 144.43,8124.77 144.92,8124.69 145.41,8124.59 145.89,8124.45 146.36,8124.27 146.81,8124.05 147.24,8123.79 147.63,8123.49 148.00,8123.15 148.32,8122.77 148.61,8122.36 148.85,8121.92 149.04,8121.46 149.19,8120.99 149.30,8120.50 149.37,8120.00 149.41,8119.51 149.42,8119.01 149.43,8118.51"/>
    </edge>
    <edge id="edge-17" from="node-33" to="node-34" priority="1">
        <lane id="edge-17_0" index="0" speed="11.00" length="14.49" width="5.00" customShape="1" shape="152.04,8120.57 152.04,8121.07 152.02,8121.57 151.99,8122.07 151.93,8122.56 151.84,8123.06 151.72,8123.54 151.55,8124.01 151.35,8124.47 151.11,8124.90 150.82,8125.31 150.50,8125.70 150.14,8126.05 149.76,8126.37 149.35,8126.65 148.91,8126.90 148.46,8127.11 147.99,8127.29 147.51,8127.43 147.03,8127.55 146.54,8127.64 146.04,8127.71 145.54,8127.76 145.05,8127.79 144.55,8127.82 144.05,8127.83 143.55,8127.83 143.05,8127.83 142.55,8127.83 142.05,8127.82"/>
    </edge>
    <edge id="edge-18" from="node-35" to="node-36" priority="1">
        <lane id="edge-18_0" index="0" speed="11.00" length="9.19" width="5.00" customShape="1" shape="152.04,8120.57 152.04,8121.05 152.07,8121.54 152.14,8122.02 152.26,8122.48 152.44,8122.93 152.69,8123.35 152.99,8123.72 153.35,8124.04 153.75,8124.31 154.18,8124.53 154.64,8124.70 155.11,8124.82 155.58,8124.90 156.07,8124.95 156.55,8124.98 157.03,8124.99 157.52,8125.00 158.00,8125.00 158.48,8125.01"/>
    </edge>
    <edge id="edge-19" from="node-37" to="node-38" priority="1">
        <lane id="edge-19_0" index="0" speed="11.00" length="83.71" width="5.00" customShape="1" shape="58.23,8123.83 58.73,8123.84 59.23,8123.84 59.73,8123.85 60.23,8123.86 60.72,8123.87 61.22,8123.87 61.72,8123.88 62.22,8123.89 62.72,8123.89 63.22,8123.90 63.71,8123.91 64.21,8123.92 64.71,8123.92 65.21,8123.93 65.71,8123.94 66.20,8123.94 66.70,8123.95 67.20,8123.96 67.70,8123.96 68.20,8123.97 68.70,8123.98 69.19,8123.99 69.69,8123.99 70.19,8124.00 70.69,8124.01 71.19,8124.01 71.69,8124.02 72.18,8124.03 72.68,8124.03 73.18,8124.04 73.68,8124.05 74.18,8124.05 74.67,8124.06 75.17,8124.07 75.67,8124.07 76.17,8124.08 76.67,8124.09 77.17,8124.09 77.66,8124.10 78.16,8124.11 78.66,8124.11 79.16,8124.12 79.66,8124.13 80.15,8124.13 80.65,8124.14 81.15,8124.15 81.65,8124.15 82.15,8124.16 82.65,8124.17 83.14,8124.17 83.64,8124.18 84.14,8124.19 84.64,8124.19 85.14,8124.20 85.64,8124.21 86.13,8124.21 86.63,8124.22 87.13,8124.22 87.63,8124.23 88.13,8124.24 88.62,8124.24 89.12,8124.25 89.62,8124.26 90.12,8124.26 90.62,8124.27 91.12,8124.28 91.61,8124.28 92.11,8124.29 92.61,8124.29 93.11,8124.30 93.61,8124.31 94.11,8124.31 94.60,8124.32 95.10,8124.33 95.60,8124.33 96.10,8124.34 96.60,8124.34 97.09,8124.35 97.59,8124.36 98.09,8124.36 98.59,8124.37 99.09,8124.38 99.59,8124.38 100.08,8124.39 100.58,8124.39 101.08,8124.40 101.58,8124.41 102.08,8124.41 102.57,8124.42 103.07,8124.42 103.57,8124.43 104.07,8124.44 104.57,8124.44 105.07,8124.45 105.56,8124.45 106.06,8124.46 106.56,8124.47 107.06,8124.47 107.56,8124.48 108.06,8124.48 108.55,8124.49 109.05,8124.49 109.55,8124.50 110.05,8124.51 110.55,8124.51 111.04,8124.52 111.54,8124.52 112.04,8124.53 112.54,8124.54 113.04,8124.54 113.54,8124.55 114.03,8124.55 114.53,8124.56 115.03,8124.56 115.53,8124.57 116.03,8124.57 116.53,8124.58 117.02,8124.59 117.52,8124.59 118.02,8124.60 118.52,8124.60 119.02,8124.61 119.51,8124.61 120.01,8124.62 120.51,8124.63 121.01,8124.63 121.51,8124.64 122.01,8124.64 122.50,8124.65 123.00,8124.65 123.50,8124.66 124.00,8124.66 124.50,8124.67 125.00,8124.67 125.49,8124.68 125.99,8124.69 126.49,8124.69 126.99,8124.70 127.49,8124.70 127.98,8124.71 128.48,8124.71 128.98,8124.72 129.48,8124.72 129.98,8124.73 130.48,8124.73 130.97,8124.74 131.47,8124.74 131.97,8124.75 132.47,8124.75 132.97,8124.76 133.47,8124.76 133.96,8124.77 134.46,8124.77 134.96,8124.78 135.46,8124.79 135.96,8124.79 136.45,8124.80 136.95,8124.80 137.45,8124.81 137.95,8124.81 138.45,8124.82 138.95,8124.82 139.44,8124.83 139.94,8124.83 140.44,8124.84 140.94,8124.84 141.44,8124.85 141.94,8124.85"/>
    </edge>
    <edge id="edge-2" from="node-3" to="node-4" priority="1">
        <lane id="edge-2_0" index="0" speed="11.00" length="113.48" width="5.00" customShape="1" shape="-30.56,8267.35 -30.07,8267.35 -29.58,8267.35 -29.09,8267.35 -28.59,8267.34 -28.10,8267.34 -27.61,8267.34 -27.12,8267.34 -26.62,8267.34 -26.13,8267.34 -25.64,8267.34 -25.15,8267.34 -24.65,8267.34 -24.16,8267.34 -23.67,8267.34 -23.18,8267.34 -22.69,8267.34 -22.19,8267.34 -21.70,8267.34 -21.21,8267.34 -20.72,8267.34 -20.22,8267.34 -19.73,8267.34 -19.24,8267.34 -18.75,8267.35 -18.25,8267.35 -17.76,8267.35 -17.27,8267.35 -16.78,8267.35 -16.28,8267.36 -15.79,8267.36 -15.30,8267.36 -14.81,8267.36 -14.31,8267.37 -13.82,8267.37 -13.33,8267.37 -12.84,8267.38 -12.34,8267.38 -11.85,8267.38 -11.36,8267.39 -10.87,8267.39 -10.37,8267.39 -9.88,8267.40 -9.38,8267.40 -8.89,8267.40 -8.39,8267.41 -7.89,8267.41 -7.40,8267.42 -6.90,8267.42 -6.41,8267.42 -5.91,8267.43 -5.42,8267.43 -4.92,8267.44 -4.42,8267.44 -3.93,8267.45 -3.43,8267.45 -2.94,8267.45 -2.44,8267.46 -1.94,8267.46 -1.45,8267.47 -0.95,8267.47 -0.46,8267.48 0.04,8267.48 0.54,8267.49 1.03,8267.49 1.53,8267.50 2.02,8267.50 2.52,8267.51 3.01,8267.51 3.51,8267.52 4.01,8267.52 4.50,8267.53 5.00,8267.54 5.49,8267.54 5.99,8267.55 6.49,8267.55 6.98,8267.56 7.48,8267.56 7.97,8267.57 8.47,8267.58 8.97,8267.58 9.46,8267.59 9.96,8267.60 10.45,8267.60 10.95,8267.61 11.44,8267.61 11.94,8267.62 12.44,8267.63 12.93,8267.63 13.43,8267.64 13.92,8267.65 14.42,8267.65 14.92,8267.66 15.41,8267.67 15.91,8267.68 16.40,8267.68 16.90,8267.69 17.40,8267.70 17.89,8267.70 18.39,8267.71 18.88,8267.72 19.38,8267.73 19.87,8267.73 20.37,8267.74 20.87,8267.75 21.36,8267.76 21.86,8267.77 22.35,8267.77 22.85,8267.78 23.35,8267.79 23.84,8267.80 24.34,8267.81 24.83,8267.81 25.33,8267.82 25.82,8267.83 26.32,8267.84 26.82,8267.85 27.31,8267.86 27.81,8267.87 28.30,8267.87 28.80,8267.88 29.30,8267.89 29.79,8267.90 30.29,8267.91 30.78,8267.92 31.28,8267.93 31.77,8267.94 32.26,8267.95 32.75,8267.95 33.24,8267.96 33.73,8267.97 34.22,8267.97 34.71,8267.97 35.20,8267.96 35.69,8267.95 36.18,8267.93 36.66,8267.90 37.15,8267.86 37.64,8267.81 38.12,8267.75 38.61,8267.68 39.09,8267.59 39.57,8267.48 40.04,8267.36 40.51,8267.21 40.97,8267.05 41.42,8266.87 41.87,8266.67 42.31,8266.45 42.73,8266.21 43.14,8265.94 43.54,8265.66 43.92,8265.35 44.28,8265.02 44.62,8264.67 44.95,8264.31 45.25,8263.92 45.53,8263.52 45.78,8263.10 46.01,8262.67 46.22,8262.23 46.40,8261.77 46.56,8261.31 46.69,8260.84 46.81,8260.36 46.90,8259.88 46.97,8259.40 47.02,8258.91 47.06,8258.42 47.09,8257.94 47.10,8257.45 47.11,8256.96 47.11,8256.47 47.12,8255.97 47.12,8255.48 47.12,8254.99 47.13,8254.49 47.13,8254.00 47.13,8253.51 47.14,8253.01 47.14,8252.52 47.14,8252.03 47.15,8251.53 47.15,8251.04 47.16,8250.54 47.16,8250.05 47.16,8249.56 47.17,8249.06 47.17,8248.57 47.17,8248.08 47.18,8247.58 47.18,8247.09 47.19,8246.59 47.19,8246.10 47.19,8245.61 47.20,8245.11 47.20,8244.62 47.21,8244.13 47.21,8243.63 47.21,8243.14 47.22,8242.64 47.22,8242.15 47.23,8241.66 47.23,8241.16 47.23,8240.67 47.24,8240.18 47.24,8239.68 47.25,8239.19 47.25,8238.69 47.25,8238.20 47.26,8237.71 47.26,8237.21 47.27,8236.72 47.27,8236.23 47.27,8235.73 47.28,8235.24 47.28,8234.74 47.29,8234.25 47.29,8233.76 47.30,8233.26 47.30,8232.77 47.30,8232.28 47.31,8231.78 47.31,8231.29 47.32,8230.79 47.32,8230.30 47.33,8229.81 47.33,8229.31 47.34,8228.82 47.34,8228.33 47.34,8227.83"/>
    </edge>
    <edge id="edge-20" from="node-39" to="node-40" priority="1">
        <lane id="edge-20_0" index="0" speed="11.00" length="34.47" width="5.00" customShape="1" shape="51.12,8082.56 51.12,8083.06 51.11,8083.56 51.11,8084.06 51.10,8084.56 51.10,8085.06 51.10,8085.56 51.09,8086.06 51.09,8086.56 51.08,8087.06 51.08,8087.56 51.08,8088.06 51.07,8088.56 51.07,8089.06 51.06,8089.55 51.06,8090.05 51.06,8090.55 51.05,8091.05 51.05,8091.55 51.04,8092.05 51.04,8092.55 51.04,8093.05 51.03,8093.55 51.03,8094.05 51.02,8094.55 51.02,8095.05 51.02,8095.55 51.01,8096.05 51.01,8096.55 51.00,8097.05 51.00,8097.55 51.00,8098.05 50.99,8098.55 50.99,8099.05 50.98,8099.55 50.98,8100.05 50.98,8100.55 50.97,8101.04 50.97,8101.54 50.96,8102.04 50.96,8102.54 50.96,8103.04 50.95,8103.54 50.95,8104.04 50.94,8104.54 50.94,8105.04 50.94,8105.54 50.93,8106.04 50.93,8106.54 50.92,8107.04 50.92,8107.54 50.92,8108.04 50.91,8108.54 50.91,8109.04 50.90,8109.54 50.90,8110.04 50.90,8110.54 50.89,8111.04 50.89,8111.54 50.88,8112.04 50.88,8112.54 50.88,8113.03 50.87,8113.53 50.87,8114.03 50.86,8114.53 50.86,8115.03 50.86,8115.53 50.85,8116.03 50.85,8116.53 50.84,8117.03"/>
    </edge>
    <edge id="edge-21" from="node-41" to="node-42" priority="1">
        <lane id="edge-21_0" index="0" speed="11.00" length="34.33" width="5.00" customShape="1" shape="48.48,8116.79 48.48,8116.29 48.49,8115.79 48.49,8115.30 48.50,8114.80 48.50,8114.30 48.51,8113.80 48.51,8113.31 48.52,8112.81 48.52,8112.31 48.53,8111.81 48.53,8111.32 48.54,8110.82 48.54,8110.32 48.55,8109.82 48.55,8109.33 48.56,8108.83 48.56,8108.33 48.56,8107.83 48.57,8107.34 48.57,8106.84 48.58,8106.34 48.58,8105.84 48.59,8105.35 48.59,8104.85 48.60,8104.35 48.60,8103.85 48.61,8103.36 48.61,8102.86 48.62,8102.36 48.62,8101.86 48.62,8101.37 48.63,8100.87 48.63,8100.37 48.64,8099.87 48.64,8099.38 48.65,8098.88 48.65,8098.38 48.66,8097.88 48.66,8097.39 48.66,8096.89 48.67,8096.39 48.67,8095.89 48.68,8095.40 48.68,8094.90 48.69,8094.40 48.69,8093.90 48.70,8093.41 48.70,8092.91 48.70,8092.41 48.71,8091.91 48.71,8091.42 48.72,8090.92 48.72,8090.42 48.73,8089.92 48.73,8089.43 48.73,8088.93 48.74,8088.43 48.74,8087.93 48.75,8087.44 48.75,8086.94 48.76,8086.44 48.76,8085.94 48.77,8085.45 48.77,8084.95 48.77,8084.45 48.78,8083.95 48.78,8083.46 48.79,8082.96 48.79,8082.46"/>
    </edge>
    <edge id="edge-22" from="node-43" to="node-44" priority="1">
        <lane id="edge-22_0" index="0" speed="11.00" length="11.72" width="5.00" customShape="1" shape="50.84,8117.03 50.84,8117.52 50.85,8118.01 50.87,8118.50 50.93,8118.98 51.01,8119.46 51.13,8119.94 51.29,8120.40 51.49,8120.84 51.73,8121.27 52.01,8121.67 52.33,8122.03 52.69,8122.37 53.08,8122.67 53.49,8122.93 53.92,8123.15 54.38,8123.33 54.84,8123.48 55.32,8123.60 55.80,8123.68 56.28,8123.74 56.77,8123.78 57.26,8123.81 57.74,8123.82 58.23,8123.83"/>
    </edge>
    <edge id="edge-23" from="node-45" to="node-46" priority="1">
        <lane id="edge-23_0" index="0" speed="11.00" length="18.47" width="5.00" customShape="1" shape="50.84,8117.03 50.84,8117.53 50.84,8118.03 50.83,8118.53 50.83,8119.03 50.82,8119.53 50.82,8120.03 50.82,8120.53 50.81,8121.02 50.81,8121.52 50.80,8122.02 50.80,8122.52 50.79,8123.02 50.79,8123.52 50.78,8124.02 50.78,8124.52 50.77,8125.02 50.77,8125.52 50.77,8126.02 50.76,8126.51 50.76,8127.01 50.75,8127.51 50.75,8128.01 50.74,8128.51 50.74,8129.01 50.73,8129.51 50.73,8130.01 50.72,8130.51 50.72,8131.01 50.71,8131.51 50.71,8132.00 50.70,8132.50 50.70,8133.00 50.69,8133.50 50.69,8134.00 50.69,8134.50 50.68,8135.00 50.68,8135.50"/>
    </edge>
    <edge id="edge-24" from="node-47" to="node-48" priority="1">
        <lane id="edge-24_0" index="0" speed="11.00" length="17.89" width="5.00" customShape="1" shape="48.29,8135.43 48.30,8134.93 48.31,8134.44 48.32,8133.94 48.33,8133.44 48.36,8132.95 48.39,8132.45 48.44,8131.96 48.50,8131.46 48.57,8130.97 48.67,8130.48 48.78,8130.00 48.91,8129.52 49.07,8129.05 49.25,8128.59 49.45,8128.14 49.69,8127.70 49.94,8127.27 50.23,8126.86 50.54,8126.48 50.88,8126.11 51.24,8125.77 51.62,8125.45 52.02,8125.16 52.45,8124.90 52.89,8124.67 53.34,8124.47 53.81,8124.30 54.28,8124.16 54.77,8124.05 55.26,8123.96 55.75,8123.90 56.25,8123.86 56.74,8123.83 57.24,8123.82 57.74,8123.82 58.23,8123.83"/>
    </edge>
    <edge id="edge-25" from="node-49" to="node-50" priority="1">
        <lane id="edge-25_0" index="0" speed="11.00" length="18.65" width="5.00" customShape="1" shape="48.29,8135.43 48.30,8134.94 48.30,8134.45 48.31,8133.96 48.31,8133.47 48.32,8132.98 48.33,8132.49 48.33,8132.00 48.34,8131.51 48.34,8131.02 48.35,8130.53 48.35,8130.03 48.36,8129.54 48.36,8129.05 48.37,8128.56 48.37,8128.07 48.38,8127.58 48.38,8127.09 48.38,8126.60 48.39,8126.11 48.39,8125.62 48.40,8125.13 48.40,8124.64 48.41,8124.15 48.41,8123.66 48.42,8123.17 48.42,8122.68 48.43,8122.18 48.43,8121.69 48.44,8121.20 48.44,8120.71 48.45,8120.22 48.45,8119.73 48.46,8119.24 48.46,8118.75 48.47,8118.26 48.47,8117.77 48.48,8117.28 48.48,8116.79"/>
    </edge>
    <edge id="edge-26" from="node-51" to="node-52" priority="1">
        <lane id="edge-26_0" index="0" speed="11.00" length="76.89" width="5.00" customShape="1" shape="50.68,8135.50 50.67,8136.00 50.67,8136.50 50.66,8137.00 50.66,8137.50 50.65,8137.99 50.65,8138.49 50.64,8138.99 50.64,8139.49 50.64,8139.99 50.63,8140.49 50.63,8140.99 50.62,8141.49 50.62,8141.99 50.61,8142.49 50.61,8142.99 50.61,8143.49 50.60,8143.99 50.60,8144.48 50.59,8144.98 50.59,8145.48 50.59,8145.98 50.58,8146.48 50.58,8146.98 50.57,8147.48 50.57,8147.98 50.57,8148.48 50.56,8148.98 50.56,8149.48 50.56,8149.98 50.55,8150.48 50.55,8150.97 50.55,8151.47 50.54,8151.97 50.54,8152.47 50.54,8152.97 50.53,8153.47 50.53,8153.97 50.53,8154.47 50.52,8154.97 50.52,8155.47 50.52,8155.97 50.52,8156.47 50.51,8156.97 50.51,8157.46 50.51,8157.96 50.51,8158.46 50.50,8158.96 50.50,8159.46 50.50,8159.96 50.50,8160.46 50.49,8160.96 50.49,8161.46 50.49,8161.96 50.49,8162.46 50.49,8162.96 50.48,8163.46 50.48,8163.96 50.48,8164.45 50.48,8164.95 50.48,8165.45 50.47,8165.95 50.47,8166.45 50.47,8166.95 50.47,8167.45 50.47,8167.95 50.47,8168.45 50.47,8168.95 50.46,8169.45 50.46,8169.95 50.46,8170.45 50.46,8170.94 50.46,8171.44 50.46,8171.94 50.46,8172.44 50.45,8172.94 50.45,8173.44 50.45,8173.94 50.45,8174.44 50.45,8174.94 50.45,8175.44 50.45,8175.94 50.45,8176.44 50.44,8176.94 50.44,8177.44 50.44,8177.93 50.44,8178.43 50.44,8178.93 50.44,8179.43 50.44,8179.93 50.44,8180.43 50.43,8180.93 50.43,8181.43 50.43,8181.93 50.43,8182.43 50.43,8182.93 50.43,8183.43 50.43,8183.93 50.42,8184.42 50.42,8184.92 50.42,8185.42 50.42,8185.92 50.42,8186.42 50.42,8186.92 50.41,8187.42 50.41,8187.92 50.41,8188.42 50.41,8188.92 50.40,8189.42 50.40,8189.92 50.40,8190.42 50.40,8190.92 50.39,8191.41 50.39,8191.91 50.39,8192.41 50.39,8192.91 50.38,8193.41 50.38,8193.91 50.38,8194.41 50.37,8194.91 50.37,8195.41 50.36,8195.91 50.36,8196.41 50.36,8196.91 50.35,8197.41 50.35,8197.90 50.34,8198.40 50.34,8198.90 50.33,8199.40 50.33,8199.90 50.32,8200.40 50.32,8200.90 50.31,8201.40 50.31,8201.90 50.30,8202.40 50.30,8202.90 50.29,8203.40 50.28,8203.90 50.28,8204.39 50.27,8204.89 50.26,8205.39 50.25,8205.89 50.25,8206.39 50.24,8206.89 50.23,8207.39 50.22,8207.89 50.21,8208.39 50.21,8208.89 50.20,8209.39 50.19,8209.89 50.18,8210.38 50.17,8210.88 50.16,8211.38 50.15,8211.88 50.14,8212.38"/>
    </edge>
    <edge id="edge-27" from="node-53" to="node-54" priority="1">
        <lane id="edge-27_0" index="0" speed="11.00" length="12.13" width="5.00" customShape="1" shape="56.04,8126.76 55.55,8126.75 55.07,8126.76 54.58,8126.81 54.10,8126.89 53.64,8127.02 53.19,8127.20 52.76,8127.43 52.37,8127.71 52.02,8128.05 51.71,8128.42 51.44,8128.83 51.22,8129.26 51.05,8129.71 50.91,8130.18 50.82,8130.65 50.75,8131.13 50.71,8131.62 50.69,8132.10 50.68,8132.59 50.67,8133.07 50.68,8133.56 50.68,8134.04 50.68,8134.53 50.68,8135.01 50.68,8135.50"/>
    </edge>
    <edge id="edge-28" from="node-55" to="node-56" priority="1">
        <lane id="edge-28_0" index="0" speed="11.00" length="14.64" width="5.00" customShape="1" shape="56.04,8126.76 55.55,8126.75 55.06,8126.73 54.57,8126.70 54.09,8126.64 53.61,8126.56 53.13,8126.45 52.67,8126.30 52.22,8126.12 51.78,8125.90 51.36,8125.65 50.97,8125.36 50.61,8125.04 50.27,8124.68 49.96,8124.30 49.69,8123.90 49.45,8123.48 49.24,8123.04 49.06,8122.58 48.91,8122.12 48.79,8121.65 48.69,8121.17 48.61,8120.69 48.56,8120.20 48.52,8119.71 48.49,8119.23 48.48,8118.74 48.47,8118.25 48.47,8117.76 48.48,8117.28 48.48,8116.79"/>
    </edge>
    <edge id="edge-29" from="node-57" to="node-58" priority="1">
        <lane id="edge-29_0" index="0" speed="11.00" length="76.77" width="5.00" customShape="1" shape="47.52,8212.19 47.53,8211.69 47.53,8211.20 47.54,8210.70 47.55,8210.20 47.55,8209.70 47.56,8209.20 47.56,8208.70 47.57,8208.21 47.57,8207.71 47.58,8207.21 47.59,8206.71 47.59,8206.21 47.60,8205.71 47.60,8205.21 47.61,8204.72 47.61,8204.22 47.62,8203.72 47.62,8203.22 47.63,8202.72 47.63,8202.22 47.64,8201.73 47.65,8201.23 47.65,8200.73 47.66,8200.23 47.66,8199.73 47.67,8199.23 47.67,8198.74 47.68,8198.24 47.68,8197.74 47.69,8197.24 47.69,8196.74 47.70,8196.24 47.70,8195.74 47.71,8195.25 47.71,8194.75 47.72,8194.25 47.72,8193.75 47.73,8193.25 47.73,8192.75 47.74,8192.26 47.74,8191.76 47.75,8191.26 47.75,8190.76 47.75,8190.26 47.76,8189.76 47.76,8189.26 47.77,8188.77 47.77,8188.27 47.78,8187.77 47.78,8187.27 47.79,8186.77 47.79,8186.27 47.80,8185.78 47.80,8185.28 47.81,8184.78 47.81,8184.28 47.82,8183.78 47.82,8183.28 47.83,8182.78 47.83,8182.29 47.83,8181.79 47.84,8181.29 47.84,8180.79 47.85,8180.29 47.85,8179.79 47.86,8179.30 47.86,8178.80 47.87,8178.30 47.87,8177.80 47.88,8177.30 47.88,8176.80 47.89,8176.30 47.89,8175.81 47.89,8175.31 47.90,8174.81 47.90,8174.31 47.91,8173.81 47.91,8173.31 47.92,8172.82 47.92,8172.32 47.93,8171.82 47.93,8171.32 47.94,8170.82 47.94,8170.32 47.95,8169.82 47.95,8169.33 47.96,8168.83 47.96,8168.33 47.96,8167.83 47.97,8167.33 47.97,8166.83 47.98,8166.34 47.98,8165.84 47.99,8165.34 47.99,8164.84 48.00,8164.34 48.00,8163.84 48.01,8163.34 48.01,8162.85 48.02,8162.35 48.02,8161.85 48.03,8161.35 48.03,8160.85 48.04,8160.35 48.04,8159.86 48.05,8159.36 48.05,8158.86 48.06,8158.36 48.06,8157.86 48.07,8157.36 48.07,8156.86 48.08,8156.37 48.08,8155.87 48.09,8155.37 48.09,8154.87 48.10,8154.37 48.10,8153.87 48.11,8153.38 48.11,8152.88 48.12,8152.38 48.12,8151.88 48.13,8151.38 48.13,8150.88 48.14,8150.39 48.14,8149.89 48.15,8149.39 48.15,8148.89 48.16,8148.39 48.16,8147.89 48.17,8147.39 48.17,8146.90 48.18,8146.40 48.18,8145.90 48.19,8145.40 48.19,8144.90 48.20,8144.40 48.20,8143.91 48.21,8143.41 48.21,8142.91 48.22,8142.41 48.22,8141.91 48.23,8141.41 48.24,8140.91 48.24,8140.42 48.25,8139.92 48.25,8139.42 48.26,8138.92 48.26,8138.42 48.27,8137.92 48.27,8137.43 48.28,8136.93 48.28,8136.43 48.29,8135.93 48.29,8135.43"/>
    </edge>
    <edge id="edge-3" from="node-5" to="node-6" priority="1">
        <lane id="edge-3_0" index="0" speed="11.00" length="4.89" width="5.00" customShape="1" shape="242.60,8125.49 243.09,8125.49 243.58,8125.49 244.07,8125.50 244.56,8125.50 245.05,8125.50 245.54,8125.50 246.02,8125.50 246.51,8125.50 247.00,8125.50 247.49,8125.50"/>
    </edge>
    <edge id="edge-30" from="node-59" to="node-60" priority="1">