<?xml version="1.0" encoding="UTF-8"?>

<!-- generated on 2022-10-25 15:21:31 by Eclipse SUMO netconvert Version 1.10.0
<configuration xmlns:xsi="http://www.w3.org/2001/XMLSchema-instance" xsi:noNamespaceSchemaLocation="http://sumo.dlr.de/xsd/netconvertConfiguration.xsd">

    <input>
        <sumo-net-file value="scenarios/benchmark/10_agents_with_replay/1_replay/map.net.xml"/>
    </input>

    <output>
        <output-file value="scenarios/benchmark/10_agents_with_replay/1_replay/shifted_map-AUTOGEN.net.xml"/>
    </output>

    <processing>
        <geometry.min-radius.fix.railways value="false"/>
        <geometry.max-grade.fix value="false"/>
        <offset.disable-normalization value="false"/>
        <lefthand value="false"/>
    </processing>

    <junctions>
        <no-turnarounds value="true"/>
        <junctions.corner-detail value="5"/>
        <junctions.limit-turn-speed value="5.5"/>
        <rectangular-lane-cut value="false"/>
    </junctions>

    <pedestrian>
        <walkingareas value="false"/>
    </pedestrian>

    <report>
        <aggregate-warnings value="5"/>
    </report>

    <random_number>
        <seed value="1099321922"/>
    </random_number>

</configuration>
-->

<net version="1.9" junctionCornerDetail="5" limitTurnSpeed="5.50" xmlns:xsi="http://www.w3.org/2001/XMLSchema-instance" xsi:noNamespaceSchemaLocation="http://sumo.dlr.de/xsd/net_file.xsd">

    <location netOffset="14.67,-1.40" convBoundary="0.00,0.00,455.29,25.07" origBoundary="-10000000000.00,-10000000000.00,10000000000.00,10000000000.00" projParameter="!"/>

    <edge id=":cluster_J2_J8_0" function="internal">
        <lane id=":cluster_J2_J8_0_0" index="0" speed="13.89" length="29.82" width="5.00" shape="170.58,1.44 196.96,3.25"/>
        <lane id=":cluster_J2_J8_0_1" index="1" speed="13.89" length="29.82" width="3.66" shape="170.58,1.44 174.91,2.44 180.56,4.53 187.80,6.61 196.92,7.58"/>
        <lane id=":cluster_J2_J8_0_2" index="2" speed="13.89" length="29.82" width="3.66" shape="170.58,1.44 174.83,3.01 180.35,6.36 187.56,9.70 196.89,11.24"/>
        <lane id=":cluster_J2_J8_0_3" index="3" speed="13.89" length="29.82" width="3.66" shape="170.58,1.44 174.72,3.58 180.06,8.19 187.23,12.79 196.85,14.90"/>
        <lane id=":cluster_J2_J8_0_4" index="4" speed="13.89" length="29.82" width="3.66" shape="170.58,1.44 174.59,4.16 179.70,10.02 186.82,15.87 196.82,18.56"/>
        <lane id=":cluster_J2_J8_0_5" index="5" speed="13.89" length="29.82" width="3.66" shape="170.58,1.44 174.44,4.73 179.29,11.85 186.34,18.96 196.79,22.22"/>
    </edge>
    <edge id=":cluster_J2_J8_6" function="internal">
        <lane id=":cluster_J2_J8_6_0" index="0" speed="13.89" length="26.36" width="5.00" shape="170.57,4.09 196.96,3.25"/>
        <lane id=":cluster_J2_J8_6_1" index="1" speed="13.89" length="26.36" width="3.66" shape="170.55,7.75 196.92,7.58"/>
        <lane id=":cluster_J2_J8_6_2" index="2" speed="13.89" length="26.36" width="3.66" shape="170.53,11.41 196.89,11.24"/>
        <lane id=":cluster_J2_J8_6_3" index="3" speed="13.89" length="26.36" width="3.66" shape="170.50,15.07 196.85,14.90"/>
        <lane id=":cluster_J2_J8_6_4" index="4" speed="13.89" length="26.36" width="3.66" shape="170.48,18.73 196.82,18.56"/>
        <lane id=":cluster_J2_J8_6_5" index="5" speed="13.89" length="26.36" width="3.66" shape="170.46,22.39 196.79,22.22"/>
    </edge>

    <edge id="E3" from="J5" to="cluster_J2_J8" priority="-1" shape="35.25,0.00 97.85,2.13 180.33,4.18">
        <lane id="E3_0" index="0" speed="13.89" length="135.31" width="5.00" shape="35.34,-2.50 97.92,-0.37 170.58,1.44"/>
    </edge>
    <edge id="gneE01" from="gneJ00" to="cluster_J2_J8" priority="-1" shape="0.00,23.60 170.45,24.22">
        <lane id="gneE01_0" index="0" speed="13.89" length="170.48" width="3.66" shape="0.07,3.47 170.57,4.09"/>
        <lane id="gneE01_1" index="1" speed="13.89" length="170.48" width="3.66" shape="0.06,7.13 170.55,7.75"/>
        <lane id="gneE01_2" index="2" speed="13.89" length="170.48" width="3.66" shape="0.05,10.79 170.53,11.41"/>
        <lane id="gneE01_3" index="3" speed="13.89" length="170.48" width="3.66" shape="0.03,14.45 170.50,15.07"/>
        <lane id="gneE01_4" index="4" speed="13.89" length="170.48" width="3.66" shape="0.02,18.11 170.48,18.73"/>
        <lane id="gneE01_5" index="5" speed="13.89" length="170.48" width="3.66" shape="0.01,21.77 170.46,22.39"/>
    </edge>
    <edge id="gneE01.132" from="cluster_J2_J8" to="gneJ10" priority="-1" shape="179.66,23.98 455.29,25.07">
        <lane id="gneE01.132_0" index="0" speed="13.89" length="258.46" width="5.00" shape="196.96,3.25 455.37,4.27"/>
        <lane id="gneE01.132_1" index="1" speed="13.89" length="258.46" width="3.66" shape="196.92,7.58 455.36,8.60"/>
        <lane id="gneE01.132_2" index="2" speed="13.89" length="258.46" width="3.66" shape="196.89,11.24 455.34,12.26"/>
        <lane id="gneE01.132_3" index="3" speed="13.89" length="258.46" width="3.66" shape="196.85,14.90 455.33,15.92"/>
        <lane id="gneE01.132_4" index="4" speed="13.89" length="258.46" width="3.66" shape="196.82,18.56 455.31,19.58"/>
        <lane id="gneE01.132_5" index="5" speed="13.89" length="258.46" width="3.66" shape="196.79,22.22 455.30,23.24"/>
    </edge>

    <junction id="J5" type="dead_end" x="35.25" y="0.00" incLanes="" intLanes="" shape="35.25,0.00 35.42,-5.00"/>
    <junction id="cluster_J2_J8" type="priority" x="174.13" y="15.20" incLanes="E3_0 gneE01_0 gneE01_1 gneE01_2 gneE01_3 gneE01_4 gneE01_5" intLanes=":cluster_J2_J8_0_0 :cluster_J2_J8_0_1 :cluster_J2_J8_0_2 :cluster_J2_J8_0_3 :cluster_J2_J8_0_4 :cluster_J2_J8_0_5 :cluster_J2_J8_6_0 :cluster_J2_J8_6_1 :cluster_J2_J8_6_2 :cluster_J2_J8_6_3 :cluster_J2_J8_6_4 :cluster_J2_J8_6_5" shape="196.77,24.38 196.98,0.87 188.64,0.17 180.61,-0.56 170.60,-1.24 170.45,24.22" customShape="1">
        <request index="0"  response="111111000000" foes="111111000000" cont="0"/>
        <request index="1"  response="111111000000" foes="111111000000" cont="0"/>
        <request index="2"  response="111111000000" foes="111111000000" cont="0"/>
        <request index="3"  response="111111000000" foes="111111000000" cont="0"/>
        <request index="4"  response="111111000000" foes="111111000000" cont="0"/>
        <request index="5"  response="111111000000" foes="111111000000" cont="0"/>
        <request index="6"  response="000000000000" foes="000000111111" cont="0"/>
        <request index="7"  response="000000000000" foes="000000111111" cont="0"/>
        <request index="8"  response="000000000000" foes="000000111111" cont="0"/>
        <request index="9"  response="000000000000" foes="000000111111" cont="0"/>
        <request index="10" response="000000000000" foes="000000111111" cont="0"/>
        <request index="11" response="000000000000" foes="000000111111" cont="0"/>
    </junction>
    <junction id="gneJ00" type="dead_end" x="0.00" y="23.60" incLanes="" intLanes="" shape="0.00,23.60 0.08,1.64"/>
    <junction id="gneJ10" type="dead_end" x="455.29" y="25.07" incLanes="gneE01.132_0 gneE01.132_1 gneE01.132_2 gneE01.132_3 gneE01.132_4 gneE01.132_5" intLanes="" shape="455.38,1.77 455.29,25.07"/>

    <connection from="E3" to="gneE01.132" fromLane="0" toLane="0" via=":cluster_J2_J8_0_0" dir="s" state="m"/>
    <connection from="E3" to="gneE01.132" fromLane="0" toLane="1" via=":cluster_J2_J8_0_1" dir="s" state="m"/>
    <connection from="E3" to="gneE01.132" fromLane="0" toLane="2" via=":cluster_J2_J8_0_2" dir="s" state="m"/>
    <connection from="E3" to="gneE01.132" fromLane="0" toLane="3" via=":cluster_J2_J8_0_3" dir="s" state="m"/>
    <connection from="E3" to="gneE01.132" fromLane="0" toLane="4" via=":cluster_J2_J8_0_4" dir="s" state="m"/>
    <connection from="E3" to="gneE01.132" fromLane="0" toLane="5" via=":cluster_J2_J8_0_5" dir="s" state="m"/>
    <connection from="gneE01" to="gneE01.132" fromLane="0" toLane="0" via=":cluster_J2_J8_6_0" dir="s" state="M"/>
    <connection from="gneE01" to="gneE01.132" fromLane="1" toLane="1" via=":cluster_J2_J8_6_1" dir="s" state="M"/>
    <connection from="gneE01" to="gneE01.132" fromLane="2" toLane="2" via=":cluster_J2_J8_6_2" dir="s" state="M"/>
    <connection from="gneE01" to="gneE01.132" fromLane="3" toLane="3" via=":cluster_J2_J8_6_3" dir="s" state="M"/>
    <connection from="gneE01" to="gneE01.132" fromLane="4" toLane="4" via=":cluster_J2_J8_6_4" dir="s" state="M"/>
    <connection from="gneE01" to="gneE01.132" fromLane="5" toLane="5" via=":cluster_J2_J8_6_5" dir="s" state="M"/>

    <connection from=":cluster_J2_J8_0" to="gneE01.132" fromLane="0" toLane="0" dir="s" state="M"/>
    <connection from=":cluster_J2_J8_0" to="gneE01.132" fromLane="1" toLane="1" dir="s" state="M"/>
    <connection from=":cluster_J2_J8_0" to="gneE01.132" fromLane="2" toLane="2" dir="s" state="M"/>
    <connection from=":cluster_J2_J8_0" to="gneE01.132" fromLane="3" toLane="3" dir="s" state="M"/>
    <connection from=":cluster_J2_J8_0" to="gneE01.132" fromLane="4" toLane="4" dir="s" state="M"/>
    <connection from=":cluster_J2_J8_0" to="gneE01.132" fromLane="5" toLane="5" dir="s" state="M"/>
    <connection from=":cluster_J2_J8_6" to="gneE01.132" fromLane="0" toLane="0" dir="s" state="M"/>
    <connection from=":cluster_J2_J8_6" to="gneE01.132" fromLane="1" toLane="1" dir="s" state="M"/>
    <connection from=":cluster_J2_J8_6" to="gneE01.132" fromLane="2" toLane="2" dir="s" state="M"/>
    <connection from=":cluster_J2_J8_6" to="gneE01.132" fromLane="3" toLane="3" dir="s" state="M"/>
    <connection from=":cluster_J2_J8_6" to="gneE01.132" fromLane="4" toLane="4" dir="s" state="M"/>
    <connection from=":cluster_J2_J8_6" to="gneE01.132" fromLane="5" toLane="5" dir="s" state="M"/>

</net>
