<?xml version="1.0" encoding="UTF-8"?>

<!-- generated on Wed 19 Aug 2020 03:06:35 PM EDT by Eclipse SUMO netedit Version v1_5_0+1104-53a79c6
<configuration xmlns:xsi="http://www.w3.org/2001/XMLSchema-instance" xsi:noNamespaceSchemaLocation="http://sumo.dlr.de/xsd/netconvertConfiguration.xsd">

    <input>
        <sumo-net-file value="/home/kyber/MainProjectSMARTS/SMARTS/scenarios/intersections/test2lane_t/map.net.xml"/>
    </input>

    <output>
        <output-file value="/home/kyber/MainProjectSMARTS/SMARTS/scenarios/intersections/test2lane_t/180map.net.xml"/>
    </output>

    <processing>
        <geometry.min-radius.fix.railways value="false"/>
        <geometry.max-grade.fix value="false"/>
        <offset.disable-normalization value="true"/>
        <lefthand value="false"/>
    </processing>

    <junctions>
        <no-turnarounds value="true"/>
        <junctions.corner-detail value="5"/>
        <junctions.limit-turn-speed value="5.5"/>
        <rectangular-lane-cut value="false"/>
    </junctions>

    <pedestrian>
        <walkingareas value="false"/>
    </pedestrian>

    <report>
        <aggregate-warnings value="5"/>
    </report>

</configuration>
-->

<net version="1.6" junctionCornerDetail="5" limitTurnSpeed="5.50" xmlns:xsi="http://www.w3.org/2001/XMLSchema-instance" xsi:noNamespaceSchemaLocation="http://sumo.dlr.de/xsd/net_file.xsd">

    <location netOffset="0.00,0.00" convBoundary="0.00,0.00,200.00,180.00" origBoundary="-10000000000.00,-10000000000.00,10000000000.00,10000000000.00" projParameter="!"/>

    <edge id=":junction-intersection_0" function="internal">
        <lane id=":junction-intersection_0_0" index="0" speed="6.56" length="7.65" shape="103.50,104.85 101.75,103.80 100.00,103.45 98.25,103.80 96.50,104.85"/>
    </edge>
    <edge id=":junction-intersection_1" function="internal">
        <lane id=":junction-intersection_1_0" index="0" speed="10.09" length="11.23" shape="103.50,104.85 101.27,102.72 99.67,100.41 98.72,97.93 98.40,95.26"/>
    </edge>
    <edge id=":junction-intersection_2" function="internal">
        <lane id=":junction-intersection_2_0" index="0" speed="8.77" length="8.37" shape="101.60,95.26 101.84,97.19 102.57,99.02 103.79,100.74 105.50,102.35"/>
    </edge>
    <edge id=":junction-intersection_3" function="internal">
        <lane id=":junction-intersection_3_0" index="0" speed="10.09" length="3.87" shape="101.60,95.26 101.28,97.93 100.86,99.03"/>
    </edge>
    <edge id=":junction-intersection_6" function="internal">
        <lane id=":junction-intersection_6_0" index="0" speed="10.09" length="7.37" shape="100.86,99.03 100.33,100.41 98.73,102.72 96.50,104.85"/>
    </edge>
    <edge id=":junction-intersection_4" function="internal">
        <lane id=":junction-intersection_4_0" index="0" speed="8.77" length="8.37" shape="94.50,102.35 96.21,100.74 97.43,99.02 98.16,97.19 98.40,95.26"/>
    </edge>
    <edge id=":junction-intersection_5" function="internal">
        <lane id=":junction-intersection_5_0" index="0" speed="8.07" length="12.02" shape="94.50,102.35 97.25,100.70 100.00,100.15 102.75,100.70 105.50,102.35"/>
    </edge>

    <edge id="edge-east-EW" from="junction-east" to="junction-intersection" priority="-1">
        <lane id="edge-east-EW_0" index="0" speed="13.89" length="122.30" shape="199.00,181.25 103.50,104.85"/>
    </edge>
    <edge id="edge-east-WE" from="junction-intersection" to="junction-east" priority="-1">
        <lane id="edge-east-WE_0" index="0" speed="13.89" length="122.30" shape="105.50,102.35 201.00,178.75"/>
    </edge>
    <edge id="edge-south-NS" from="junction-intersection" to="junction-south" priority="-1">
        <lane id="edge-south-NS_0" index="0" speed="13.89" length="95.26" shape="98.40,95.26 98.40,0.00"/>
    </edge>
    <edge id="edge-south-SN" from="junction-south" to="junction-intersection" priority="-1">
        <lane id="edge-south-SN_0" index="0" speed="13.89" length="95.26" shape="101.60,0.00 101.60,95.26"/>
    </edge>
    <edge id="edge-west-EW" from="junction-intersection" to="junction-west" priority="-1">
        <lane id="edge-west-EW_0" index="0" speed="13.89" length="122.30" shape="96.50,104.85 1.00,181.25"/>
    </edge>
    <edge id="edge-west-WE" from="junction-west" to="junction-intersection" priority="-1">
        <lane id="edge-west-WE_0" index="0" speed="13.89" length="122.30" shape="-1.00,178.75 94.50,102.35"/>
    </edge>

    <junction id="junction-east" type="dead_end" x="200.00" y="180.00" incLanes="edge-east-WE_0" intLanes="" shape="200.00,180.00 202.00,177.50 200.00,180.00"/>
    <junction id="junction-intersection" type="priority" x="100.00" y="100.00" incLanes="edge-east-EW_0 edge-south-SN_0 edge-west-WE_0" intLanes=":junction-intersection_0_0 :junction-intersection_1_0 :junction-intersection_2_0 :junction-intersection_6_0 :junction-intersection_4_0 :junction-intersection_5_0" shape="102.50,106.10 106.50,101.10 104.67,99.28 104.02,98.32 103.57,97.33 103.29,96.31 103.20,95.26 96.80,95.26 96.43,97.33 95.98,98.32 95.33,99.28 94.51,100.20 93.50,101.10 97.50,106.10 99.17,105.21 100.00,105.10 100.83,105.21 101.67,105.54">
        <request index="0" response="000000" foes="001000" cont="0"/>
        <request index="1" response="000000" foes="111000" cont="0"/>
        <request index="2" response="000000" foes="100000" cont="0"/>
        <request index="3" response="000011" foes="100011" cont="1"/>
        <request index="4" response="000010" foes="000010" cont="0"/>
        <request index="5" response="001110" foes="001110" cont="0"/>
    </junction>
    <junction id="junction-south" type="dead_end" x="100.00" y="0.00" incLanes="edge-south-NS_0" intLanes="" shape="100.00,0.00 96.80,0.00 100.00,0.00"/>
    <junction id="junction-west" type="dead_end" x="0.00" y="180.00" incLanes="edge-west-EW_0" intLanes="" shape="-0.00,180.00 2.00,182.50 -0.00,180.00"/>

    <junction id=":junction-intersection_6_0" type="internal" x="100.86" y="99.03" incLanes=":junction-intersection_3_0 edge-east-EW_0" intLanes=":junction-intersection_0_0 :junction-intersection_1_0 :junction-intersection_5_0"/>

    <connection from="edge-east-EW" to="edge-west-EW" fromLane="0" toLane="0" via=":junction-intersection_0_0" dir="r" state="M"/>
    <connection from="edge-east-EW" to="edge-south-NS" fromLane="0" toLane="0" via=":junction-intersection_1_0" dir="l" state="M"/>
    <connection from="edge-south-SN" to="edge-east-WE" fromLane="0" toLane="0" via=":junction-intersection_2_0" dir="r" state="M"/>
    <connection from="edge-south-SN" to="edge-west-EW" fromLane="0" toLane="0" via=":junction-intersection_3_0" dir="l" state="m"/>
    <connection from="edge-west-WE" to="edge-south-NS" fromLane="0" toLane="0" via=":junction-intersection_4_0" dir="r" state="m"/>
    <connection from="edge-west-WE" to="edge-east-WE" fromLane="0" toLane="0" via=":junction-intersection_5_0" dir="l" state="m"/>

    <connection from=":junction-intersection_0" to="edge-west-EW" fromLane="0" toLane="0" dir="r" state="M"/>
    <connection from=":junction-intersection_1" to="edge-south-NS" fromLane="0" toLane="0" dir="l" state="M"/>
    <connection from=":junction-intersection_2" to="edge-east-WE" fromLane="0" toLane="0" dir="r" state="M"/>
    <connection from=":junction-intersection_3" to="edge-west-EW" fromLane="0" toLane="0" via=":junction-intersection_6_0" dir="l" state="m"/>
    <connection from=":junction-intersection_6" to="edge-west-EW" fromLane="0" toLane="0" dir="l" state="M"/>
    <connection from=":junction-intersection_4" to="edge-south-NS" fromLane="0" toLane="0" dir="r" state="M"/>
    <connection from=":junction-intersection_5" to="edge-east-WE" fromLane="0" toLane="0" dir="l" state="M"/>

</net>
