<?xml version="1.0" encoding="UTF-8"?>

<!-- generated on 2022-11-01 14:13:36 by Eclipse SUMO netconvert Version 1.10.0
<configuration xmlns:xsi="http://www.w3.org/2001/XMLSchema-instance" xsi:noNamespaceSchemaLocation="http://sumo.dlr.de/xsd/netconvertConfiguration.xsd">

    <input>
        <sumo-net-file value="scenarios/benchmark/10_agents_to_n_roads/10_roads/map.net.xml"/>
    </input>

    <output>
        <output-file value="scenarios/benchmark/10_agents_to_n_roads/10_roads/shifted_map-AUTOGEN.net.xml"/>
    </output>

    <processing>
        <geometry.min-radius.fix.railways value="false"/>
        <geometry.max-grade.fix value="false"/>
        <offset.disable-normalization value="false"/>
        <lefthand value="false"/>
    </processing>

    <junctions>
        <no-turnarounds value="true"/>
        <junctions.corner-detail value="5"/>
        <junctions.limit-turn-speed value="5.5"/>
        <rectangular-lane-cut value="false"/>
    </junctions>

    <pedestrian>
        <walkingareas value="false"/>
    </pedestrian>

    <report>
        <aggregate-warnings value="5"/>
    </report>

    <random_number>
        <seed value="1432849119"/>
    </random_number>

</configuration>
-->

<net version="1.9" junctionCornerDetail="5" limitTurnSpeed="5.50" xmlns:xsi="http://www.w3.org/2001/XMLSchema-instance" xsi:noNamespaceSchemaLocation="http://sumo.dlr.de/xsd/net_file.xsd">

    <location netOffset="200.00,-100.00" convBoundary="0.00,0.00,200.00,100.00" origBoundary="-10000000000.00,-10000000000.00,10000000000.00,10000000000.00" projParameter="!"/>

    <edge id=":gneJ24_0" function="internal">
        <lane id=":gneJ24_0_0" index="0" speed="6.51" length="9.03" shape="95.20,10.40 94.85,7.95 93.80,6.20 92.05,5.15 89.60,4.80"/>
    </edge>
    <edge id=":gneJ24_1" function="internal">
        <lane id=":gneJ24_1_0" index="0" speed="9.26" length="19.35" shape="98.40,10.40 99.15,5.15 101.40,1.40 105.15,-0.85 110.40,-1.60"/>
    </edge>
    <edge id=":gneJ24_2" function="internal">
        <lane id=":gneJ24_2_0" index="0" speed="6.51" length="9.03" shape="110.40,4.80 107.95,5.15 106.20,6.20 105.15,7.95 104.80,10.40"/>
    </edge>
    <edge id=":gneJ24_3" function="internal">
        <lane id=":gneJ24_3_0" index="0" speed="13.89" length="20.80" shape="110.40,4.80 89.60,4.80"/>
        <lane id=":gneJ24_3_1" index="1" speed="13.89" length="20.80" shape="110.40,1.60 89.60,1.60"/>
    </edge>
    <edge id=":gneJ24_5" function="internal">
        <lane id=":gneJ24_5_0" index="0" speed="13.89" length="20.80" shape="89.60,-4.80 110.40,-4.80"/>
        <lane id=":gneJ24_5_1" index="1" speed="13.89" length="20.80" shape="89.60,-1.60 110.40,-1.60"/>
    </edge>
    <edge id=":gneJ24_7" function="internal">
        <lane id=":gneJ24_7_0" index="0" speed="9.26" length="6.96" shape="89.60,-1.60 94.85,-0.85 96.27,0.00"/>
    </edge>
    <edge id=":gneJ24_8" function="internal">
        <lane id=":gneJ24_8_0" index="0" speed="9.26" length="12.40" shape="96.27,0.00 98.60,1.40 100.85,5.15 101.60,10.40"/>
    </edge>
    <edge id=":gneJ25_0" function="internal">
        <lane id=":gneJ25_0_0" index="0" speed="3.90" length="2.58" shape="195.20,6.40 195.10,5.70 194.80,5.20 194.30,4.90 193.60,4.80"/>
        <lane id=":gneJ25_0_1" index="1" speed="6.08" length="7.74" shape="198.40,6.40 198.10,4.30 197.20,2.80 195.70,1.90 193.60,1.60"/>
    </edge>
    <edge id=":gneJ25_2" function="internal">
        <lane id=":gneJ25_2_0" index="0" speed="8.96" length="18.06" shape="193.60,-4.80 198.50,-4.10 202.00,-2.00 204.10,1.50 204.80,6.40"/>
        <lane id=":gneJ25_2_1" index="1" speed="7.66" length="12.90" shape="193.60,-1.60 197.10,-1.10 199.60,0.40 201.10,2.90 201.60,6.40"/>
    </edge>
    <edge id=":gneJ26_0" function="internal">
        <lane id=":gneJ26_0_0" index="0" speed="8.96" length="18.06" shape="204.80,93.60 204.10,98.50 202.00,102.00 198.50,104.10 193.60,104.80"/>
        <lane id=":gneJ26_0_1" index="1" speed="7.66" length="12.90" shape="201.60,93.60 201.10,97.10 199.60,99.60 197.10,101.10 193.60,101.60"/>
    </edge>
    <edge id=":gneJ26_2" function="internal">
        <lane id=":gneJ26_2_0" index="0" speed="3.90" length="2.58" shape="193.60,95.20 194.30,95.10 194.80,94.80 195.10,94.30 195.20,93.60"/>
        <lane id=":gneJ26_2_1" index="1" speed="6.08" length="7.74" shape="193.60,98.40 195.70,98.10 197.20,97.20 198.10,95.70 198.40,93.60"/>
    </edge>
    <edge id=":gneJ27_0" function="internal">
        <lane id=":gneJ27_0_0" index="0" speed="7.66" length="12.90" shape="106.40,101.60 102.90,101.10 100.40,99.60 98.90,97.10 98.40,93.60"/>
    </edge>
    <edge id=":gneJ27_1" function="internal">
        <lane id=":gneJ27_1_0" index="0" speed="3.90" length="2.58" shape="104.80,93.60 104.90,94.30 105.20,94.80 105.70,95.10 106.40,95.20"/>
    </edge>

    <edge id="-gneE21" from="gneJ24" to="gneJ23" priority="-1">
        <lane id="-gneE21_0" index="0" speed="13.89" length="89.60" shape="89.60,4.80 0.00,4.80"/>
        <lane id="-gneE21_1" index="1" speed="13.89" length="89.60" shape="89.60,1.60 0.00,1.60"/>
    </edge>
    <edge id="-gneE22" from="gneJ25" to="gneJ24" priority="-1">
        <lane id="-gneE22_0" index="0" speed="13.89" length="83.20" shape="193.60,4.80 110.40,4.80"/>
        <lane id="-gneE22_1" index="1" speed="13.89" length="83.20" shape="193.60,1.60 110.40,1.60"/>
    </edge>
    <edge id="-gneE23" from="gneJ26" to="gneJ25" priority="-1">
        <lane id="-gneE23_0" index="0" speed="13.89" length="87.20" shape="195.20,93.60 195.20,6.40"/>
        <lane id="-gneE23_1" index="1" speed="13.89" length="87.20" shape="198.40,93.60 198.40,6.40"/>
    </edge>
    <edge id="-gneE24" from="gneJ27" to="gneJ26" priority="-1">
        <lane id="-gneE24_0" index="0" speed="13.89" length="87.20" shape="106.40,95.20 193.60,95.20"/>
        <lane id="-gneE24_1" index="1" speed="13.89" length="87.20" shape="106.40,98.40 193.60,98.40"/>
    </edge>
    <edge id="-gneE25" from="gneJ24" to="gneJ27" priority="-1">
        <lane id="-gneE25_0" index="0" speed="13.89" length="83.20" shape="104.80,10.40 104.80,93.60"/>
        <lane id="-gneE25_1" index="1" speed="13.89" length="83.20" shape="101.60,10.40 101.60,93.60"/>
    </edge>
    <edge id="gneE21" from="gneJ23" to="gneJ24" priority="-1">
        <lane id="gneE21_0" index="0" speed="13.89" length="89.60" shape="0.00,-4.80 89.60,-4.80"/>
        <lane id="gneE21_1" index="1" speed="13.89" length="89.60" shape="0.00,-1.60 89.60,-1.60"/>
    </edge>
    <edge id="gneE22" from="gneJ24" to="gneJ25" priority="-1">
        <lane id="gneE22_0" index="0" speed="13.89" length="83.20" shape="110.40,-4.80 193.60,-4.80"/>
        <lane id="gneE22_1" index="1" speed="13.89" length="83.20" shape="110.40,-1.60 193.60,-1.60"/>
    </edge>
    <edge id="gneE23" from="gneJ25" to="gneJ26" priority="-1">
        <lane id="gneE23_0" index="0" speed="13.89" length="87.20" shape="204.80,6.40 204.80,93.60"/>
        <lane id="gneE23_1" index="1" speed="13.89" length="87.20" shape="201.60,6.40 201.60,93.60"/>
    </edge>
    <edge id="gneE24" from="gneJ26" to="gneJ27" priority="-1">
        <lane id="gneE24_0" index="0" speed="13.89" length="87.20" shape="193.60,104.80 106.40,104.80"/>
        <lane id="gneE24_1" index="1" speed="13.89" length="87.20" shape="193.60,101.60 106.40,101.60"/>
    </edge>
    <edge id="gneE25" from="gneJ27" to="gneJ24" priority="-1">
        <lane id="gneE25_0" index="0" speed="13.89" length="83.20" shape="95.20,93.60 95.20,10.40"/>
        <lane id="gneE25_1" index="1" speed="13.89" length="83.20" shape="98.40,93.60 98.40,10.40"/>
    </edge>

    <junction id="gneJ23" type="dead_end" x="0.00" y="0.00" incLanes="-gneE21_0 -gneE21_1" intLanes="" shape="0.00,0.00 0.00,6.40 0.00,0.00"/>
    <junction id="gneJ24" type="priority" x="100.00" y="0.00" incLanes="gneE25_0 gneE25_1 -gneE22_0 -gneE22_1 gneE21_0 gneE21_1" intLanes=":gneJ24_0_0 :gneJ24_1_0 :gneJ24_2_0 :gneJ24_3_0 :gneJ24_3_1 :gneJ24_5_0 :gneJ24_5_1 :gneJ24_8_0" shape="93.60,10.40 106.40,10.40 106.84,8.18 107.40,7.40 108.18,6.84 109.18,6.51 110.40,6.40 110.40,-6.40 89.60,-6.40 89.60,6.40 91.82,6.84 92.60,7.40 93.16,8.18 93.49,9.18">
        <request index="0" response="00011000" foes="00011000" cont="0"/>
        <request index="1" response="11111000" foes="11111000" cont="0"/>
        <request index="2" response="00000000" foes="00000000" cont="0"/>
        <request index="3" response="00000000" foes="10000011" cont="0"/>
        <request index="4" response="00000000" foes="10000011" cont="0"/>
        <request index="5" response="00000000" foes="00000010" cont="0"/>
        <request index="6" response="00000000" foes="00000010" cont="0"/>
        <request index="7" response="00011000" foes="00011010" cont="1"/>
    </junction>
    <junction id="gneJ25" type="priority" x="200.00" y="0.00" incLanes="-gneE23_0 -gneE23_1 gneE22_0 gneE22_1" intLanes=":gneJ25_0_0 :gneJ25_0_1 :gneJ25_2_0 :gneJ25_2_1" shape="193.60,6.40 206.40,6.40 206.04,2.49 204.98,-0.71 203.20,-3.20 200.71,-4.98 197.51,-6.04 193.60,-6.40">
        <request index="0" response="0000" foes="0000" cont="0"/>
        <request index="1" response="0000" foes="0000" cont="0"/>
        <request index="2" response="0000" foes="0000" cont="0"/>
        <request index="3" response="0000" foes="0000" cont="0"/>
    </junction>
    <junction id="gneJ26" type="priority" x="200.00" y="100.00" incLanes="gneE23_0 gneE23_1 -gneE24_0 -gneE24_1" intLanes=":gneJ26_0_0 :gneJ26_0_1 :gneJ26_2_0 :gneJ26_2_1" shape="206.40,93.60 193.60,93.60 193.60,106.40 197.51,106.04 200.71,104.98 203.20,103.20 204.98,100.71 206.04,97.51">
        <request index="0" response="0000" foes="0000" cont="0"/>
        <request index="1" response="0000" foes="0000" cont="0"/>
        <request index="2" response="0000" foes="0000" cont="0"/>
        <request index="3" response="0000" foes="0000" cont="0"/>
    </junction>
    <junction id="gneJ27" type="priority" x="100.00" y="100.00" incLanes="gneE24_0 gneE24_1 -gneE25_0 -gneE25_1" intLanes=":gneJ27_0_0 :gneJ27_1_0" shape="106.40,106.40 106.40,93.60 93.60,93.60 93.96,97.51 95.02,100.71 96.80,103.20 99.29,104.98 102.49,106.04">
        <request index="0" response="00" foes="00" cont="0"/>
        <request index="1" response="00" foes="00" cont="0"/>
    </junction>

    <junction id=":gneJ24_8_0" type="internal" x="96.27" y="0.00" incLanes=":gneJ24_7_0 -gneE22_0 -gneE22_1" intLanes=":gneJ24_1_0 :gneJ24_3_0 :gneJ24_3_1"/>

    <connection from="-gneE22" to="-gneE25" fromLane="0" toLane="0" via=":gneJ24_2_0" dir="r" state="M"/>
    <connection from="-gneE22" to="-gneE21" fromLane="0" toLane="0" via=":gneJ24_3_0" dir="s" state="M"/>
    <connection from="-gneE22" to="-gneE21" fromLane="1" toLane="1" via=":gneJ24_3_1" dir="s" state="M"/>
    <connection from="-gneE23" to="-gneE22" fromLane="0" toLane="0" via=":gneJ25_0_0" dir="r" state="M"/>
    <connection from="-gneE23" to="-gneE22" fromLane="1" toLane="1" via=":gneJ25_0_1" dir="r" state="M"/>
    <connection from="-gneE24" to="-gneE23" fromLane="0" toLane="0" via=":gneJ26_2_0" dir="r" state="M"/>
    <connection from="-gneE24" to="-gneE23" fromLane="1" toLane="1" via=":gneJ26_2_1" dir="r" state="M"/>
    <connection from="-gneE25" to="-gneE24" fromLane="0" toLane="0" via=":gneJ27_1_0" dir="r" state="M"/>
    <connection from="gneE21" to="gneE22" fromLane="0" toLane="0" via=":gneJ24_5_0" dir="s" state="M"/>
    <connection from="gneE21" to="gneE22" fromLane="1" toLane="1" via=":gneJ24_5_1" dir="s" state="M"/>
    <connection from="gneE21" to="-gneE25" fromLane="1" toLane="1" via=":gneJ24_7_0" dir="l" state="m"/>
    <connection from="gneE22" to="gneE23" fromLane="0" toLane="0" via=":gneJ25_2_0" dir="l" state="M"/>
    <connection from="gneE22" to="gneE23" fromLane="1" toLane="1" via=":gneJ25_2_1" dir="l" state="M"/>
    <connection from="gneE23" to="gneE24" fromLane="0" toLane="0" via=":gneJ26_0_0" dir="l" state="M"/>
    <connection from="gneE23" to="gneE24" fromLane="1" toLane="1" via=":gneJ26_0_1" dir="l" state="M"/>
    <connection from="gneE24" to="gneE25" fromLane="1" toLane="1" via=":gneJ27_0_0" dir="l" state="M"/>
    <connection from="gneE25" to="-gneE21" fromLane="0" toLane="0" via=":gneJ24_0_0" dir="r" state="m"/>
    <connection from="gneE25" to="gneE22" fromLane="1" toLane="1" via=":gneJ24_1_0" dir="l" state="m"/>

    <connection from=":gneJ24_0" to="-gneE21" fromLane="0" toLane="0" dir="r" state="M"/>
    <connection from=":gneJ24_1" to="gneE22" fromLane="0" toLane="1" dir="l" state="M"/>
    <connection from=":gneJ24_2" to="-gneE25" fromLane="0" toLane="0" dir="r" state="M"/>
    <connection from=":gneJ24_3" to="-gneE21" fromLane="0" toLane="0" dir="s" state="M"/>
    <connection from=":gneJ24_3" to="-gneE21" fromLane="1" toLane="1" dir="s" state="M"/>
    <connection from=":gneJ24_5" to="gneE22" fromLane="0" toLane="0" dir="s" state="M"/>
    <connection from=":gneJ24_5" to="gneE22" fromLane="1" toLane="1" dir="s" state="M"/>
    <connection from=":gneJ24_7" to="-gneE25" fromLane="0" toLane="1" via=":gneJ24_8_0" dir="l" state="m"/>
    <connection from=":gneJ24_8" to="-gneE25" fromLane="0" toLane="1" dir="l" state="M"/>
    <connection from=":gneJ25_0" to="-gneE22" fromLane="0" toLane="0" dir="r" state="M"/>
    <connection from=":gneJ25_0" to="-gneE22" fromLane="1" toLane="1" dir="r" state="M"/>
    <connection from=":gneJ25_2" to="gneE23" fromLane="0" toLane="0" dir="l" state="M"/>
    <connection from=":gneJ25_2" to="gneE23" fromLane="1" toLane="1" dir="l" state="M"/>
    <connection from=":gneJ26_0" to="gneE24" fromLane="0" toLane="0" dir="l" state="M"/>
    <connection from=":gneJ26_0" to="gneE24" fromLane="1" toLane="1" dir="l" state="M"/>
    <connection from=":gneJ26_2" to="-gneE23" fromLane="0" toLane="0" dir="r" state="M"/>
    <connection from=":gneJ26_2" to="-gneE23" fromLane="1" toLane="1" dir="r" state="M"/>
    <connection from=":gneJ27_0" to="gneE25" fromLane="0" toLane="1" dir="l" state="M"/>
    <connection from=":gneJ27_1" to="-gneE24" fromLane="0" toLane="0" dir="r" state="M"/>

</net>
