<?xml version="1.0" encoding="UTF-8"?>

<!-- generated on 2023-05-03 17:02:42 by Eclipse SUMO netedit Version 1.16.0
<configuration xmlns:xsi="http://www.w3.org/2001/XMLSchema-instance" xsi:noNamespaceSchemaLocation="http://sumo.dlr.de/xsd/netconvertConfiguration.xsd">

    <input>
        <sumo-net-file value="./t3/training/straight_2lane_sumo_agents_1/map.net.xml"/>
    </input>

    <output>
        <output-file value="./t3/training/straight_2lane_sumo_agents_1/map.net.xml"/>
    </output>

    <processing>
        <geometry.min-radius.fix.railways value="false"/>
        <geometry.max-grade.fix value="false"/>
        <offset.disable-normalization value="true"/>
        <lefthand value="0"/>
    </processing>

    <junctions>
        <no-turnarounds value="true"/>
        <junctions.corner-detail value="5"/>
        <junctions.limit-turn-speed value="5.50"/>
        <rectangular-lane-cut value="0"/>
    </junctions>

    <pedestrian>
        <walkingareas value="0"/>
    </pedestrian>

</configuration>
-->

<net version="1.16" junctionCornerDetail="5" limitTurnSpeed="5.50" xmlns:xsi="http://www.w3.org/2001/XMLSchema-instance" xsi:noNamespaceSchemaLocation="http://sumo.dlr.de/xsd/net_file.xsd">

    <location netOffset="0.00,0.00" convBoundary="0.00,-0.10,350.00,0.11" origBoundary="-10000000000.00,-10000000000.00,10000000000.00,10000000000.00" projParameter="!"/>

    <edge id=":J2_0" function="internal">
        <lane id=":J2_0_0" index="0" speed="13.89" length="0.30" shape="24.61,-4.80 24.91,-4.80"/>
        <lane id=":J2_0_1" index="1" speed="13.89" length="0.30" shape="24.61,-1.60 24.91,-1.60"/>
    </edge>
    <edge id=":J4_0" function="internal">
        <lane id=":J4_0_0" index="0" speed="13.89" length="6.76" shape="109.52,-4.70 116.28,-4.75"/>
        <lane id=":J4_0_1" index="1" disallow="truck" speed="13.89" length="6.76" shape="109.51,-1.50 116.28,-1.55"/>
    </edge>
    <edge id=":J5_0" function="internal">
        <lane id=":J5_0_0" index="0" speed="13.89" length="11.76" shape="161.26,-4.75 173.03,-4.75"/>
        <lane id=":J5_0_1" index="1" disallow="truck" speed="13.89" length="11.76" shape="161.26,-1.55 173.02,-1.55"/>
    </edge>
    <edge id=":J6_0" function="internal">
        <lane id=":J6_0_0" index="0" disallow="truck" speed="13.89" length="8.68" shape="224.35,-4.69 233.02,-4.77"/>
        <lane id=":J6_0_1" index="1" speed="13.89" length="8.68" shape="224.34,-1.49 233.03,-1.57"/>
    </edge>
    <edge id=":J7_0" function="internal">
        <lane id=":J7_0_0" index="0" disallow="truck" speed="13.89" length="8.64" shape="282.42,-4.93 291.07,-4.90"/>
        <lane id=":J7_0_1" index="1" speed="13.89" length="8.64" shape="282.43,-1.73 291.06,-1.70"/>
    </edge>

    <edge id="E0" from="J0" to="J2" priority="-1">
        <lane id="E0_0" index="0" speed="13.89" length="24.61" shape="0.00,-4.80 24.61,-4.80" changeLeft="tram rail_urban rail rail_electric rail_fast"/>
        <lane id="E0_1" index="1" speed="13.89" length="24.61" shape="0.00,-1.60 24.61,-1.60" changeLeft="tram rail_urban rail rail_electric rail_fast"/>
    </edge>
    <edge id="E1" from="J2" to="J4" priority="-1" shape="24.76,0.00 109.51,0.10">
        <lane id="E1_0" index="0" speed="13.89" length="84.60" shape="24.91,-4.80 109.52,-4.70"/>
        <lane id="E1_1" index="1" speed="13.89" length="84.60" shape="24.91,-1.60 109.51,-1.50"/>
    </edge>
    <edge id="E1.114" from="J5" to="J6" priority="-1" shape="173.02,0.05 224.34,0.11">
        <lane id="E1.114_0" index="0" speed="13.89" length="51.32" shape="173.03,-4.75 224.35,-4.69"/>
        <lane id="E1.114_1" index="1" speed="13.89" length="51.32" shape="173.02,-1.55 224.34,-1.49"/>
    </edge>
    <edge id="E1.223" from="J6" to="J7" priority="-1">
        <lane id="E1.223_0" index="0" disallow="truck" speed="13.89" length="49.40" shape="233.02,-4.77 282.42,-4.93"/>
        <lane id="E1.223_1" index="1" speed="13.89" length="49.40" shape="233.03,-1.57 282.43,-1.73"/>
    </edge>
    <edge id="E1.243" from="J7" to="J1" priority="-1" shape="291.06,-0.10 350.00,0.00">
        <lane id="E1.243_0" index="0" speed="13.89" length="58.94" shape="291.07,-4.90 350.01,-4.80"/>
        <lane id="E1.243_1" index="1" speed="13.89" length="58.94" shape="291.06,-1.70 350.00,-1.60"/>
    </edge>
    <edge id="E1.91" from="J4" to="J5" priority="-1">
        <lane id="E1.91_0" index="0" speed="13.89" length="44.99" shape="116.28,-4.75 161.26,-4.75"/>
        <lane id="E1.91_1" index="1" disallow="truck" speed="13.89" length="44.99" shape="116.28,-1.55 161.26,-1.55"/>
    </edge>

    <junction id="J0" type="dead_end" x="0.00" y="0.00" incLanes="" intLanes="" shape="0.00,0.00 0.00,-6.40"/>
    <junction id="J1" type="dead_end" x="350.00" y="0.00" incLanes="E1.243_0 E1.243_1" intLanes="" shape="350.01,-6.40 350.00,0.00"/>
    <junction id="J2" type="priority" x="24.76" y="0.00" incLanes="E0_0 E0_1" intLanes=":J2_0_0 :J2_0_1" shape="24.91,0.00 24.92,-6.40 24.61,-6.40 24.61,0.00">
        <request index="0" response="00" foes="00" cont="0"/>
        <request index="1" response="00" foes="00" cont="0"/>
    </junction>
    <junction id="J4" type="priority" x="122.74" y="0.05" incLanes="E1_0 E1_1" intLanes=":J4_0_0 :J4_0_1" shape="116.28,0.05 116.28,-6.35 109.52,-6.30 109.51,0.10">
        <request index="0" response="00" foes="00" cont="0"/>
        <request index="1" response="00" foes="00" cont="0"/>
    </junction>
    <junction id="J5" type="priority" x="149.80" y="0.05" incLanes="E1.91_0 E1.91_1" intLanes=":J5_0_0 :J5_0_1" shape="173.02,0.05 173.03,-6.35 161.26,-6.35 161.26,0.05">
        <request index="0" response="00" foes="00" cont="0"/>
        <request index="1" response="00" foes="00" cont="0"/>
    </junction>
    <junction id="J6" type="priority" x="241.42" y="0.00" incLanes="E1.114_0 E1.114_1" intLanes=":J6_0_0 :J6_0_1" shape="233.04,0.03 233.02,-6.37 224.35,-6.29 224.34,0.11">
        <request index="0" response="00" foes="00" cont="0"/>
        <request index="1" response="00" foes="00" cont="0"/>
    </junction>
    <junction id="J7" type="priority" x="274.09" y="-0.10" incLanes="E1.223_0 E1.223_1" intLanes=":J7_0_0 :J7_0_1" shape="291.06,-0.10 291.07,-6.50 282.41,-6.53 282.43,-0.13">
        <request index="0" response="00" foes="00" cont="0"/>
        <request index="1" response="00" foes="00" cont="0"/>
    </junction>

    <connection from="E0" to="E1" fromLane="0" toLane="0" via=":J2_0_0" dir="s" state="M"/>
    <connection from="E0" to="E1" fromLane="1" toLane="1" via=":J2_0_1" dir="s" state="M"/>
    <connection from="E1" to="E1.91" fromLane="0" toLane="0" via=":J4_0_0" dir="s" state="M"/>
    <connection from="E1" to="E1.91" fromLane="1" toLane="1" via=":J4_0_1" dir="s" state="M"/>
    <connection from="E1.114" to="E1.223" fromLane="0" toLane="0" via=":J6_0_0" dir="s" state="M"/>
    <connection from="E1.114" to="E1.223" fromLane="1" toLane="1" via=":J6_0_1" dir="s" state="M"/>
    <connection from="E1.223" to="E1.243" fromLane="0" toLane="0" via=":J7_0_0" dir="s" state="M"/>
    <connection from="E1.223" to="E1.243" fromLane="1" toLane="1" via=":J7_0_1" dir="s" state="M"/>
    <connection from="E1.91" to="E1.114" fromLane="0" toLane="0" via=":J5_0_0" dir="s" state="M"/>
    <connection from="E1.91" to="E1.114" fromLane="1" toLane="1" via=":J5_0_1" dir="s" state="M"/>

    <connection from=":J2_0" to="E1" fromLane="0" toLane="0" dir="s" state="M"/>
    <connection from=":J2_0" to="E1" fromLane="1" toLane="1" dir="s" state="M"/>
    <connection from=":J4_0" to="E1.91" fromLane="0" toLane="0" dir="s" state="M"/>
    <connection from=":J4_0" to="E1.91" fromLane="1" toLane="1" dir="s" state="M"/>
    <connection from=":J5_0" to="E1.114" fromLane="0" toLane="0" dir="s" state="M"/>
    <connection from=":J5_0" to="E1.114" fromLane="1" toLane="1" dir="s" state="M"/>
    <connection from=":J6_0" to="E1.223" fromLane="0" toLane="0" dir="s" state="M"/>
    <connection from=":J6_0" to="E1.223" fromLane="1" toLane="1" dir="s" state="M"/>
    <connection from=":J7_0" to="E1.243" fromLane="0" toLane="0" dir="s" state="M"/>
    <connection from=":J7_0" to="E1.243" fromLane="1" toLane="1" dir="s" state="M"/>

</net>
