<?xml version="1.0" encoding="UTF-8"?>

<!-- generated on Mon 11 Nov 12:19:43 2019 by Eclipse SUMO netedit Version 1.3.1
<configuration xmlns:xsi="http://www.w3.org/2001/XMLSchema-instance" xsi:noNamespaceSchemaLocation="http://sumo.dlr.de/xsd/netconvertConfiguration.xsd">

    <input>
        <sumo-net-file value="/Users/julian/src/HiWay/scenarios/loop/map.net.xml"/>
    </input>

    <output>
        <output-file value="/Users/julian/src/HiWay/scenarios/loop/map.net.xml"/>
    </output>

    <processing>
        <geometry.max-grade.fix value="false"/>
        <offset.disable-normalization value="true"/>
        <opposites.guess.fix-lengths value="true"/>
        <lefthand value="false"/>
    </processing>

    <junctions>
        <no-turnarounds value="true"/>
        <junctions.corner-detail value="5"/>
        <junctions.limit-turn-speed value="5.5"/>
        <rectangular-lane-cut value="false"/>
    </junctions>

    <pedestrian>
        <walkingareas value="false"/>
    </pedestrian>

</configuration>
-->

<net version="1.3" junctionCornerDetail="5" limitTurnSpeed="5.50" xmlns:xsi="http://www.w3.org/2001/XMLSchema-instance" xsi:noNamespaceSchemaLocation="http://sumo.dlr.de/xsd/net_file.xsd">

    <location netOffset="-630882.85,-4856133.12" convBoundary="-0.30,0.00,198.75,86.68" origBoundary="-79.371708,43.846679,-79.369237,43.847436" projParameter="+proj=utm +zone=17 +ellps=WGS84 +datum=WGS84 +units=m +no_defs"/>

    <type id="highway.bridleway" priority="1" numLanes="1" speed="2.78" allow="pedestrian" oneway="1" width="2.00"/>
    <type id="highway.bus_guideway" priority="1" numLanes="1" speed="27.78" allow="bus" oneway="1"/>
    <type id="highway.cycleway" priority="1" numLanes="1" speed="8.33" allow="bicycle" oneway="0" width="1.00"/>
    <type id="highway.footway" priority="1" numLanes="1" speed="2.78" allow="pedestrian" oneway="1" width="2.00"/>
    <type id="highway.ford" priority="1" numLanes="1" speed="2.78" allow="army" oneway="0"/>
    <type id="highway.living_street" priority="2" numLanes="1" speed="2.78" disallow="tram rail_urban rail rail_electric ship" oneway="0"/>
    <type id="highway.motorway" priority="14" numLanes="2" speed="39.44" allow="private emergency authority army vip passenger hov taxi bus coach delivery truck trailer motorcycle evehicle custom1 custom2" oneway="1"/>
    <type id="highway.motorway_link" priority="9" numLanes="1" speed="22.22" allow="private emergency authority army vip passenger hov taxi bus coach delivery truck trailer motorcycle evehicle custom1 custom2" oneway="1"/>
    <type id="highway.path" priority="1" numLanes="1" speed="2.78" allow="pedestrian bicycle" oneway="1" width="2.00"/>
    <type id="highway.pedestrian" priority="1" numLanes="1" speed="2.78" allow="pedestrian" oneway="1" width="2.00"/>
    <type id="highway.primary" priority="12" numLanes="2" speed="27.78" disallow="tram rail_urban rail rail_electric ship" oneway="0"/>
    <type id="highway.primary_link" priority="7" numLanes="1" speed="22.22" disallow="tram rail_urban rail rail_electric ship" oneway="0"/>
    <type id="highway.raceway" priority="15" numLanes="2" speed="83.33" allow="vip" oneway="0"/>
    <type id="highway.residential" priority="3" numLanes="1" speed="13.89" disallow="tram rail_urban rail rail_electric ship" oneway="0"/>
    <type id="highway.secondary" priority="11" numLanes="2" speed="27.78" disallow="tram rail_urban rail rail_electric ship" oneway="0"/>
    <type id="highway.secondary_link" priority="6" numLanes="1" speed="22.22" disallow="tram rail_urban rail rail_electric ship" oneway="0"/>
    <type id="highway.service" priority="1" numLanes="1" speed="5.56" allow="pedestrian delivery bicycle" oneway="0"/>
    <type id="highway.stairs" priority="1" numLanes="1" speed="1.39" allow="pedestrian" oneway="1" width="2.00"/>
    <type id="highway.step" priority="1" numLanes="1" speed="1.39" allow="pedestrian" oneway="1" width="2.00"/>
    <type id="highway.steps" priority="1" numLanes="1" speed="1.39" allow="pedestrian" oneway="1" width="2.00"/>
    <type id="highway.tertiary" priority="10" numLanes="1" speed="22.22" disallow="tram rail_urban rail rail_electric ship" oneway="0"/>
    <type id="highway.tertiary_link" priority="5" numLanes="1" speed="22.22" disallow="tram rail_urban rail rail_electric ship" oneway="0"/>
    <type id="highway.track" priority="1" numLanes="1" speed="5.56" disallow="tram rail_urban rail rail_electric ship" oneway="0"/>
    <type id="highway.trunk" priority="13" numLanes="2" speed="27.78" disallow="pedestrian bicycle tram rail_urban rail rail_electric ship" oneway="0"/>
    <type id="highway.trunk_link" priority="8" numLanes="1" speed="22.22" disallow="pedestrian bicycle tram rail_urban rail rail_electric ship" oneway="0"/>
    <type id="highway.unclassified" priority="4" numLanes="1" speed="13.89" disallow="tram rail_urban rail rail_electric ship" oneway="0"/>
    <type id="highway.unsurfaced" priority="1" numLanes="1" speed="8.33" disallow="tram rail_urban rail rail_electric ship" oneway="0"/>
    <type id="railway.light_rail" priority="19" numLanes="1" speed="27.78" allow="rail_urban" oneway="1"/>
    <type id="railway.preserved" priority="16" numLanes="1" speed="27.78" allow="rail" oneway="1"/>
    <type id="railway.rail" priority="20" numLanes="1" speed="83.33" allow="rail rail_electric" oneway="1"/>
    <type id="railway.subway" priority="18" numLanes="1" speed="27.78" allow="rail_urban" oneway="1"/>
    <type id="railway.tram" priority="17" numLanes="1" speed="13.89" allow="tram" oneway="1"/>

    <edge id=":4370324323_0" function="internal">
        <lane id=":4370324323_0_0" index="0" disallow="tram rail_urban rail rail_electric rail_fast ship" speed="16.67" length="0.28" shape="129.26,15.99 129.59,15.89"/>
        <lane id=":4370324323_0_1" index="1" disallow="tram rail_urban rail rail_electric rail_fast ship" speed="16.67" length="0.28" shape="130.19,19.05 130.45,18.97"/>
        <lane id=":4370324323_0_2" index="2" disallow="tram rail_urban rail rail_electric rail_fast ship" speed="16.67" length="0.28" shape="131.11,22.11 131.32,22.05"/>
    </edge>
    <edge id=":4370324325_0" function="internal">
        <lane id=":4370324325_0_0" index="0" disallow="tram rail_urban rail rail_electric rail_fast ship" speed="16.67" length="0.26" shape="119.88,54.00 119.80,54.01"/>
        <lane id=":4370324325_0_1" index="1" disallow="tram rail_urban rail rail_electric rail_fast ship" speed="16.67" length="0.26" shape="119.63,50.81 119.37,50.84"/>
        <lane id=":4370324325_0_2" index="2" disallow="tram rail_urban rail rail_electric rail_fast ship" speed="16.67" length="0.26" shape="119.37,47.62 118.95,47.67"/>
    </edge>

    <edge id="445633931" from="4370324323" to="4370324325" priority="11" type="highway.secondary" spreadType="center" shape="130.32,19.01 135.52,17.55 146.37,13.38 156.49,9.36 163.00,7.22 169.63,5.60 176.57,5.20 184.51,6.15 190.71,8.32 195.32,11.87 197.71,16.47 198.75,21.18 198.31,25.22 197.95,29.14 196.94,34.15 194.76,42.74 191.98,51.74 188.25,62.97 184.52,72.16 182.15,77.19 180.32,79.74 178.24,81.70 175.67,83.40 173.38,84.57 171.46,85.41 169.12,86.23 166.64,86.62 161.89,86.68 159.37,86.10 156.54,84.74 154.38,83.26 152.38,81.15 151.54,78.65 150.99,75.88 151.24,73.41 152.17,70.29 153.62,67.67 154.15,65.56 154.38,61.96 154.08,59.29 152.82,56.69 150.85,54.78 148.33,53.28 145.03,51.96 141.73,51.35 135.39,50.32 130.78,50.21 125.46,50.34 119.50,50.82">
        <lane id="445633931_0" index="0" disallow="tram rail_urban rail rail_electric rail_fast ship" speed="16.67" length="232.58" shape="129.59,15.89 134.51,14.51 145.21,10.40 155.40,6.35 162.12,4.14 169.15,2.42 176.67,1.99 185.24,3.01 192.25,5.47 197.83,9.77 200.74,15.37 201.99,21.00 201.49,25.54 201.12,29.60 200.06,34.86 197.84,43.61 195.03,52.72 191.25,64.08 187.45,73.44 184.92,78.82 182.74,81.86 180.23,84.22 177.29,86.17 174.75,87.46 172.63,88.39 169.90,89.35 166.91,89.82 161.55,89.88 158.31,89.14 154.93,87.52 152.29,85.71 149.57,82.84 148.44,79.47 147.76,76.03 148.09,72.79 149.20,69.04 150.62,66.49 150.98,65.06 151.17,62.04 150.96,60.19 150.19,58.59 148.89,57.34 146.91,56.16 144.14,55.05 141.18,54.50 135.09,53.51 130.78,53.41 125.63,53.54 119.88,54.00"/>
        <lane id="445633931_1" index="1" disallow="tram rail_urban rail rail_electric rail_fast ship" speed="16.67" length="232.58" shape="130.45,18.97 135.52,17.55 146.37,13.38 156.49,9.36 163.00,7.22 169.63,5.60 176.57,5.20 184.51,6.15 190.71,8.32 195.32,11.87 197.71,16.47 198.75,21.18 198.31,25.22 197.95,29.14 196.94,34.15 194.76,42.74 191.98,51.74 188.25,62.97 184.52,72.16 182.15,77.19 180.32,79.74 178.24,81.70 175.67,83.40 173.38,84.57 171.46,85.41 169.12,86.23 166.64,86.62 161.89,86.68 159.37,86.10 156.54,84.74 154.38,83.26 152.38,81.15 151.54,78.65 150.99,75.88 151.24,73.41 152.17,70.29 153.62,67.67 154.15,65.56 154.38,61.96 154.08,59.29 152.82,56.69 150.85,54.78 148.33,53.28 145.03,51.96 141.73,51.35 135.39,50.32 130.78,50.21 125.46,50.34 119.63,50.81"/>
        <lane id="445633931_2" index="2" disallow="tram rail_urban rail rail_electric rail_fast ship" speed="16.67" length="232.58" shape="131.32,22.05 136.53,20.59 147.53,16.36 157.58,12.37 163.88,10.30 170.11,8.78 176.47,8.41 183.78,9.29 189.17,11.17 192.81,13.97 194.68,17.57 195.51,21.36 195.13,24.90 194.78,28.68 193.82,33.44 191.68,41.87 188.93,50.76 185.25,61.86 181.59,70.88 179.38,75.56 177.90,77.62 176.25,79.18 174.05,80.63 172.01,81.68 170.29,82.43 168.34,83.11 166.37,83.42 162.23,83.48 160.43,83.06 158.15,81.96 156.47,80.81 155.19,79.46 154.64,77.83 154.22,75.73 154.39,74.03 155.14,71.54 156.62,68.85 157.32,66.06 157.59,61.88 157.20,58.39 155.45,54.79 152.81,52.22 149.75,50.40 145.92,48.87 142.28,48.20 135.69,47.13 130.78,47.01 125.29,47.14 119.37,47.62"/>
    </edge>
    <edge id="445633932" from="4370324325" to="4370324323" priority="11" type="highway.secondary" spreadType="center" shape="119.50,50.82 114.08,51.55 109.17,52.48 85.57,57.76 72.56,60.40 57.76,62.74 48.37,63.49 39.05,63.24 32.05,62.04 25.09,60.26 19.41,57.40 14.08,54.26 8.75,49.65 4.74,44.26 2.13,38.56 0.45,32.73 -0.30,27.39 0.00,21.78 1.42,16.93 3.91,11.55 8.28,6.98 12.47,3.97 17.26,1.75 22.71,0.34 29.36,0.00 35.07,0.86 39.53,1.85 45.01,3.31 49.97,4.77 54.46,6.29 61.13,8.85 67.96,11.56 74.81,14.86 86.19,19.18 99.50,22.42 106.40,22.99 114.29,22.71 122.63,21.34 130.32,19.01">
        <lane id="445633932_0" index="0" disallow="tram rail_urban rail rail_electric rail_fast ship" speed="16.67" length="290.56" shape="119.80,54.01 114.59,54.71 109.82,55.61 86.24,60.89 73.13,63.55 58.14,65.92 48.45,66.69 38.74,66.43 31.38,65.17 23.96,63.27 17.88,60.21 12.21,56.87 6.39,51.84 1.97,45.90 -0.88,39.68 -2.69,33.40 -3.51,27.53 -3.18,21.24 -1.58,15.80 1.23,9.72 6.17,4.55 10.85,1.19 16.18,-1.28 22.22,-2.84 29.52,-3.21 35.66,-2.29 40.29,-1.26 45.87,0.23 50.94,1.72 55.55,3.28 62.29,5.87 69.25,8.63 76.07,11.92 87.14,16.12 100.01,19.25 106.48,19.79 113.97,19.52 121.90,18.22 129.26,15.99"/>
        <lane id="445633932_1" index="1" disallow="tram rail_urban rail rail_electric rail_fast ship" speed="16.67" length="290.56" shape="119.37,50.84 114.08,51.55 109.17,52.48 85.57,57.76 72.56,60.40 57.76,62.74 48.37,63.49 39.05,63.24 32.05,62.04 25.09,60.26 19.41,57.40 14.08,54.26 8.75,49.65 4.74,44.26 2.13,38.56 0.45,32.73 -0.30,27.39 0.00,21.78 1.42,16.93 3.91,11.55 8.28,6.98 12.47,3.97 17.26,1.75 22.71,0.34 29.36,0.00 35.07,0.86 39.53,1.85 45.01,3.31 49.97,4.77 54.46,6.29 61.13,8.85 67.96,11.56 74.81,14.86 86.19,19.18 99.50,22.42 106.40,22.99 114.29,22.71 122.63,21.34 130.19,19.05"/>
        <lane id="445633932_2" index="2" disallow="tram rail_urban rail rail_electric rail_fast ship" speed="16.67" length="290.56" shape="118.95,47.67 113.57,48.39 108.52,49.35 84.90,54.63 71.99,57.25 57.38,59.56 48.29,60.29 39.36,60.05 32.72,58.91 26.22,57.25 20.94,54.59 15.95,51.65 11.11,47.46 7.51,42.62 5.14,37.44 3.59,32.06 2.91,27.25 3.18,22.32 4.42,18.06 6.59,13.38 10.39,9.41 14.09,6.75 18.34,4.78 23.20,3.52 29.20,3.21 34.48,4.01 38.77,4.96 44.15,6.39 49.00,7.82 53.37,9.30 59.97,11.83 66.67,14.49 73.55,17.80 85.24,22.24 98.99,25.59 106.32,26.19 114.61,25.90 123.36,24.46 131.11,22.11"/>
    </edge>

    <junction id="4370324323" type="priority" x="130.32" y="19.01" incLanes="445633932_0 445633932_1 445633932_2" intLanes=":4370324323_0_0 :4370324323_0_1 :4370324323_0_2" shape="131.75,23.59 129.16,14.35 128.79,14.46 131.58,23.64">
        <request index="0" response="000" foes="000" cont="0"/>
        <request index="1" response="000" foes="000" cont="0"/>
        <request index="2" response="000" foes="000" cont="0"/>
    </junction>
    <junction id="4370324325" type="priority" x="119.50" y="50.82" incLanes="445633931_0 445633931_1 445633931_2" intLanes=":4370324325_0_0 :4370324325_0_1 :4370324325_0_2" shape="120.01,55.59 119.24,46.03 118.73,46.08">
        <request index="0" response="000" foes="000" cont="0"/>
        <request index="1" response="000" foes="000" cont="0"/>
        <request index="2" response="000" foes="000" cont="0"/>
    </junction>

    <connection from="445633931" to="445633932" fromLane="0" toLane="0" via=":4370324325_0_0" dir="s" state="M"/>
    <connection from="445633931" to="445633932" fromLane="1" toLane="1" via=":4370324325_0_1" dir="s" state="M"/>
    <connection from="445633931" to="445633932" fromLane="2" toLane="2" via=":4370324325_0_2" dir="s" state="M"/>
    <connection from="445633932" to="445633931" fromLane="0" toLane="0" via=":4370324323_0_0" dir="s" state="M"/>
    <connection from="445633932" to="445633931" fromLane="1" toLane="1" via=":4370324323_0_1" dir="s" state="M"/>
    <connection from="445633932" to="445633931" fromLane="2" toLane="2" via=":4370324323_0_2" dir="s" state="M"/>

    <connection from=":4370324323_0" to="445633931" fromLane="0" toLane="0" dir="s" state="M"/>
    <connection from=":4370324323_0" to="445633931" fromLane="1" toLane="1" dir="s" state="M"/>
    <connection from=":4370324323_0" to="445633931" fromLane="2" toLane="2" dir="s" state="M"/>
    <connection from=":4370324325_0" to="445633932" fromLane="0" toLane="0" dir="s" state="M"/>
    <connection from=":4370324325_0" to="445633932" fromLane="1" toLane="1" dir="s" state="M"/>
    <connection from=":4370324325_0" to="445633932" fromLane="2" toLane="2" dir="s" state="M"/>

</net>
