<?xml version="1.0" encoding="UTF-8"?>

<!-- generated on Sun 20 Sep 14:11:24 2020 by Eclipse SUMO netedit Version 11480c9a
<configuration xmlns:xsi="http://www.w3.org/2001/XMLSchema-instance" xsi:noNamespaceSchemaLocation="http://sumo.dlr.de/xsd/netconvertConfiguration.xsd">

    <input>
        <sumo-net-file value="/Users/julian/src/HiWay/smarts/core/tests/maps/6lane.net.xml"/>
    </input>

    <output>
        <output-file value="/Users/julian/src/HiWay/smarts/core/tests/maps/6lane.net.xml"/>
    </output>

    <processing>
        <geometry.min-radius.fix.railways value="false"/>
        <geometry.max-grade.fix value="false"/>
        <offset.disable-normalization value="true"/>
        <lefthand value="false"/>
    </processing>

    <junctions>
        <no-turnarounds value="true"/>
        <junctions.corner-detail value="5"/>
        <junctions.limit-turn-speed value="5.5"/>
        <rectangular-lane-cut value="false"/>
    </junctions>

    <pedestrian>
        <walkingareas value="false"/>
    </pedestrian>

    <report>
        <aggregate-warnings value="5"/>
    </report>

</configuration>
-->

<net version="1.6" junctionCornerDetail="5" limitTurnSpeed="5.50" xmlns:xsi="http://www.w3.org/2001/XMLSchema-instance" xsi:noNamespaceSchemaLocation="http://sumo.dlr.de/xsd/net_file.xsd">

    <location netOffset="-630882.85,-4856133.12" convBoundary="20.00,-130.00,220.00,10.00" origBoundary="-79.371708,43.846679,-79.369237,43.847436" projParameter="+proj=utm +zone=17 +ellps=WGS84 +datum=WGS84 +units=m +no_defs"/>

    <type id="highway.bridleway" priority="1" numLanes="1" speed="2.78" allow="pedestrian" oneway="1" width="2.00"/>
    <type id="highway.bus_guideway" priority="1" numLanes="1" speed="27.78" allow="bus" oneway="1"/>
    <type id="highway.cycleway" priority="1" numLanes="1" speed="8.33" allow="bicycle" oneway="0" width="1.00"/>
    <type id="highway.footway" priority="1" numLanes="1" speed="2.78" allow="pedestrian" oneway="1" width="2.00"/>
    <type id="highway.ford" priority="1" numLanes="1" speed="2.78" allow="army" oneway="0"/>
    <type id="highway.living_street" priority="2" numLanes="1" speed="2.78" disallow="tram rail_urban rail rail_electric ship" oneway="0"/>
    <type id="highway.motorway" priority="14" numLanes="2" speed="39.44" allow="private emergency authority army vip passenger hov taxi bus coach delivery truck trailer motorcycle evehicle custom1 custom2" oneway="1"/>
    <type id="highway.motorway_link" priority="9" numLanes="1" speed="22.22" allow="private emergency authority army vip passenger hov taxi bus coach delivery truck trailer motorcycle evehicle custom1 custom2" oneway="1"/>
    <type id="highway.path" priority="1" numLanes="1" speed="2.78" allow="pedestrian bicycle" oneway="1" width="2.00"/>
    <type id="highway.pedestrian" priority="1" numLanes="1" speed="2.78" allow="pedestrian" oneway="1" width="2.00"/>
    <type id="highway.primary" priority="12" numLanes="2" speed="27.78" disallow="tram rail_urban rail rail_electric ship" oneway="0"/>
    <type id="highway.primary_link" priority="7" numLanes="1" speed="22.22" disallow="tram rail_urban rail rail_electric ship" oneway="0"/>
    <type id="highway.raceway" priority="15" numLanes="2" speed="83.33" allow="vip" oneway="0"/>
    <type id="highway.residential" priority="3" numLanes="1" speed="13.89" disallow="tram rail_urban rail rail_electric ship" oneway="0"/>
    <type id="highway.secondary" priority="11" numLanes="2" speed="27.78" disallow="tram rail_urban rail rail_electric ship" oneway="0"/>
    <type id="highway.secondary_link" priority="6" numLanes="1" speed="22.22" disallow="tram rail_urban rail rail_electric ship" oneway="0"/>
    <type id="highway.service" priority="1" numLanes="1" speed="5.56" allow="pedestrian delivery bicycle" oneway="0"/>
    <type id="highway.stairs" priority="1" numLanes="1" speed="1.39" allow="pedestrian" oneway="1" width="2.00"/>
    <type id="highway.step" priority="1" numLanes="1" speed="1.39" allow="pedestrian" oneway="1" width="2.00"/>
    <type id="highway.steps" priority="1" numLanes="1" speed="1.39" allow="pedestrian" oneway="1" width="2.00"/>
    <type id="highway.tertiary" priority="10" numLanes="1" speed="22.22" disallow="tram rail_urban rail rail_electric ship" oneway="0"/>
    <type id="highway.tertiary_link" priority="5" numLanes="1" speed="22.22" disallow="tram rail_urban rail rail_electric ship" oneway="0"/>
    <type id="highway.track" priority="1" numLanes="1" speed="5.56" disallow="tram rail_urban rail rail_electric ship" oneway="0"/>
    <type id="highway.trunk" priority="13" numLanes="2" speed="27.78" disallow="pedestrian bicycle tram rail_urban rail rail_electric ship" oneway="0"/>
    <type id="highway.trunk_link" priority="8" numLanes="1" speed="22.22" disallow="pedestrian bicycle tram rail_urban rail rail_electric ship" oneway="0"/>
    <type id="highway.unclassified" priority="4" numLanes="1" speed="13.89" disallow="tram rail_urban rail rail_electric ship" oneway="0"/>
    <type id="highway.unsurfaced" priority="1" numLanes="1" speed="8.33" disallow="tram rail_urban rail rail_electric ship" oneway="0"/>
    <type id="railway.light_rail" priority="19" numLanes="1" speed="27.78" allow="rail_urban" oneway="1"/>
    <type id="railway.preserved" priority="16" numLanes="1" speed="27.78" allow="rail" oneway="1"/>
    <type id="railway.rail" priority="20" numLanes="1" speed="83.33" allow="rail rail_electric" oneway="1"/>
    <type id="railway.subway" priority="18" numLanes="1" speed="27.78" allow="rail_urban" oneway="1"/>
    <type id="railway.tram" priority="17" numLanes="1" speed="13.89" allow="tram" oneway="1"/>

    <edge id=":junction-intersection_0" function="internal">
        <lane id=":junction-intersection_0_0" index="0" speed="5.04" length="5.00" shape="142.00,-48.90 141.81,-50.26 141.22,-51.22 140.26,-51.81 138.90,-52.00"/>
    </edge>
    <edge id=":junction-intersection_1" function="internal">
        <lane id=":junction-intersection_1_0" index="0" speed="50.00" length="22.20" shape="142.00,-48.90 142.00,-71.10"/>
        <lane id=":junction-intersection_1_1" index="1" speed="50.00" length="22.20" shape="145.20,-48.90 145.20,-71.10"/>
        <lane id=":junction-intersection_1_2" index="2" speed="50.00" length="22.20" shape="148.40,-48.90 148.40,-71.10"/>
    </edge>
    <edge id=":junction-intersection_4" function="internal">
        <lane id=":junction-intersection_4_0" index="0" speed="9.51" length="7.18" shape="148.40,-48.90 149.19,-54.46 150.00,-55.80"/>
    </edge>
    <edge id=":junction-intersection_20" function="internal">
        <lane id=":junction-intersection_20_0" index="0" speed="9.51" length="13.30" shape="150.00,-55.80 151.58,-58.42 155.54,-60.81 161.10,-61.60"/>
    </edge>
    <edge id=":junction-intersection_5" function="internal">
        <lane id=":junction-intersection_5_0" index="0" speed="5.04" length="5.00" shape="161.10,-52.00 159.74,-51.81 158.78,-51.23 158.19,-50.26 158.00,-48.90"/>
    </edge>
    <edge id=":junction-intersection_6" function="internal">
        <lane id=":junction-intersection_6_0" index="0" speed="50.00" length="22.20" shape="161.10,-52.00 138.90,-52.00"/>
        <lane id=":junction-intersection_6_1" index="1" speed="50.00" length="22.20" shape="161.10,-55.20 138.90,-55.20"/>
        <lane id=":junction-intersection_6_2" index="2" speed="50.00" length="22.20" shape="161.10,-58.40 138.90,-58.40"/>
    </edge>
    <edge id=":junction-intersection_9" function="internal">
        <lane id=":junction-intersection_9_0" index="0" speed="9.51" length="20.48" shape="161.10,-58.40 155.54,-59.19 151.58,-61.57 149.19,-65.54 148.40,-71.10"/>
    </edge>
    <edge id=":junction-intersection_10" function="internal">
        <lane id=":junction-intersection_10_0" index="0" speed="5.04" length="5.00" shape="158.00,-71.10 158.19,-69.74 158.78,-68.78 159.74,-68.19 161.10,-68.00"/>
    </edge>
    <edge id=":junction-intersection_11" function="internal">
        <lane id=":junction-intersection_11_0" index="0" speed="50.00" length="22.20" shape="158.00,-71.10 158.00,-48.90"/>
        <lane id=":junction-intersection_11_1" index="1" speed="50.00" length="22.20" shape="154.80,-71.10 154.80,-48.90"/>
        <lane id=":junction-intersection_11_2" index="2" speed="50.00" length="22.20" shape="151.60,-71.10 151.60,-48.90"/>
    </edge>
    <edge id=":junction-intersection_14" function="internal">
        <lane id=":junction-intersection_14_0" index="0" speed="9.51" length="7.18" shape="151.60,-71.10 150.81,-65.54 150.00,-64.20"/>
    </edge>
    <edge id=":junction-intersection_21" function="internal">
        <lane id=":junction-intersection_21_0" index="0" speed="9.51" length="13.30" shape="150.00,-64.20 148.42,-61.58 144.46,-59.19 138.90,-58.40"/>
    </edge>
    <edge id=":junction-intersection_15" function="internal">
        <lane id=":junction-intersection_15_0" index="0" speed="5.04" length="5.00" shape="138.90,-68.00 140.26,-68.19 141.22,-68.78 141.81,-69.74 142.00,-71.10"/>
    </edge>
    <edge id=":junction-intersection_16" function="internal">
        <lane id=":junction-intersection_16_0" index="0" speed="50.00" length="22.20" shape="138.90,-68.00 161.10,-68.00"/>
        <lane id=":junction-intersection_16_1" index="1" speed="50.00" length="22.20" shape="138.90,-64.80 161.10,-64.80"/>
        <lane id=":junction-intersection_16_2" index="2" speed="50.00" length="22.20" shape="138.90,-61.60 161.10,-61.60"/>
    </edge>
    <edge id=":junction-intersection_19" function="internal">
        <lane id=":junction-intersection_19_0" index="0" speed="9.51" length="20.48" shape="138.90,-61.60 144.46,-60.81 148.42,-58.43 150.81,-54.46 151.60,-48.90"/>
    </edge>

    <edge id="edge-east-EW" from="junction-east" to="junction-intersection" priority="-1">
        <lane id="edge-east-EW_0" index="0" speed="50.00" length="58.90" shape="220.00,-52.00 161.10,-52.00"/>
        <lane id="edge-east-EW_1" index="1" speed="50.00" length="58.90" shape="220.00,-55.20 161.10,-55.20"/>
        <lane id="edge-east-EW_2" index="2" speed="50.00" length="58.90" shape="220.00,-58.40 161.10,-58.40"/>
    </edge>
    <edge id="edge-east-WE" from="junction-intersection" to="junction-east" priority="-1">
        <lane id="edge-east-WE_0" index="0" speed="50.00" length="58.90" shape="161.10,-68.00 220.00,-68.00"/>
        <lane id="edge-east-WE_1" index="1" speed="50.00" length="58.90" shape="161.10,-64.80 220.00,-64.80"/>
        <lane id="edge-east-WE_2" index="2" speed="50.00" length="58.90" shape="161.10,-61.60 220.00,-61.60"/>
    </edge>
    <edge id="edge-north-NS" from="junction-north" to="junction-intersection" priority="-1">
        <lane id="edge-north-NS_0" index="0" speed="50.00" length="58.90" shape="142.00,10.00 142.00,-48.90"/>
        <lane id="edge-north-NS_1" index="1" speed="50.00" length="58.90" shape="145.20,10.00 145.20,-48.90"/>
        <lane id="edge-north-NS_2" index="2" speed="50.00" length="58.90" shape="148.40,10.00 148.40,-48.90"/>
    </edge>
    <edge id="edge-north-SN" from="junction-intersection" to="junction-north" priority="-1">
        <lane id="edge-north-SN_0" index="0" speed="50.00" length="58.90" shape="158.00,-48.90 158.00,10.00"/>
        <lane id="edge-north-SN_1" index="1" speed="50.00" length="58.90" shape="154.80,-48.90 154.80,10.00"/>
        <lane id="edge-north-SN_2" index="2" speed="50.00" length="58.90" shape="151.60,-48.90 151.60,10.00"/>
    </edge>
    <edge id="edge-south-NS" from="junction-intersection" to="junction-south" priority="-1">
        <lane id="edge-south-NS_0" index="0" speed="50.00" length="58.90" shape="142.00,-71.10 142.00,-130.00"/>
        <lane id="edge-south-NS_1" index="1" speed="50.00" length="58.90" shape="145.20,-71.10 145.20,-130.00"/>
        <lane id="edge-south-NS_2" index="2" speed="50.00" length="58.90" shape="148.40,-71.10 148.40,-130.00"/>
    </edge>
    <edge id="edge-south-SN" from="junction-south" to="junction-intersection" priority="-1">
        <lane id="edge-south-SN_0" index="0" speed="50.00" length="58.90" shape="158.00,-130.00 158.00,-71.10"/>
        <lane id="edge-south-SN_1" index="1" speed="50.00" length="58.90" shape="154.80,-130.00 154.80,-71.10"/>
        <lane id="edge-south-SN_2" index="2" speed="50.00" length="58.90" shape="151.60,-130.00 151.60,-71.10"/>
    </edge>
    <edge id="edge-west-EW" from="junction-intersection" to="junction-west" priority="-1">
        <lane id="edge-west-EW_0" index="0" speed="50.00" length="118.90" shape="138.90,-52.00 20.00,-52.00"/>
        <lane id="edge-west-EW_1" index="1" speed="50.00" length="118.90" shape="138.90,-55.20 20.00,-55.20"/>
        <lane id="edge-west-EW_2" index="2" speed="50.00" length="118.90" shape="138.90,-58.40 20.00,-58.40"/>
    </edge>
    <edge id="edge-west-WE" from="junction-west" to="junction-intersection" priority="-1">
        <lane id="edge-west-WE_0" index="0" speed="50.00" length="118.90" shape="20.00,-68.00 138.90,-68.00"/>
        <lane id="edge-west-WE_1" index="1" speed="50.00" length="118.90" shape="20.00,-64.80 138.90,-64.80"/>
        <lane id="edge-west-WE_2" index="2" speed="50.00" length="118.90" shape="20.00,-61.60 138.90,-61.60"/>
    </edge>

    <junction id="junction-east" type="dead_end" x="220.00" y="-60.00" incLanes="edge-east-WE_0 edge-east-WE_1 edge-east-WE_2" intLanes="" shape="220.00,-60.00 220.00,-69.60 220.00,-60.00"/>
    <junction id="junction-intersection" type="priority" x="150.00" y="-60.00" incLanes="edge-north-NS_0 edge-north-NS_1 edge-north-NS_2 edge-east-EW_0 edge-east-EW_1 edge-east-EW_2 edge-south-SN_0 edge-south-SN_1 edge-south-SN_2 edge-west-WE_0 edge-west-WE_1 edge-west-WE_2" intLanes=":junction-intersection_0_0 :junction-intersection_1_0 :junction-intersection_1_1 :junction-intersection_1_2 :junction-intersection_20_0 :junction-intersection_5_0 :junction-intersection_6_0 :junction-intersection_6_1 :junction-intersection_6_2 :junction-intersection_9_0 :junction-intersection_10_0 :junction-intersection_11_0 :junction-intersection_11_1 :junction-intersection_11_2 :junction-intersection_21_0 :junction-intersection_15_0 :junction-intersection_16_0 :junction-intersection_16_1 :junction-intersection_16_2 :junction-intersection_19_0" shape="140.40,-48.90 159.60,-48.90 159.77,-49.73 159.97,-50.03 160.27,-50.23 160.64,-50.36 161.10,-50.40 161.10,-69.60 160.27,-69.77 159.97,-69.97 159.77,-70.27 159.64,-70.64 159.60,-71.10 140.40,-71.10 140.23,-70.27 140.03,-69.97 139.73,-69.77 139.36,-69.64 138.90,-69.60 138.90,-50.40 139.73,-50.23 140.03,-50.02 140.23,-49.73 140.36,-49.36" radius="1.50">
        <request index="0"  response="00000000000000000000" foes="00000000000111000000" cont="0"/>
        <request index="1"  response="00000000000000000000" foes="11111100001111000000" cont="0"/>
        <request index="2"  response="00000000000000000000" foes="11111100001111000000" cont="0"/>
        <request index="3"  response="00000000000000000000" foes="11111100001111000000" cont="0"/>
        <request index="4"  response="00000011100000000000" foes="11110011101111000000" cont="1"/>
        <request index="5"  response="00000011100000000000" foes="00000011100000000000" cont="0"/>
        <request index="6"  response="00000111100000011111" foes="10000111100000011111" cont="0"/>
        <request index="7"  response="00000111100000011111" foes="10000111100000011111" cont="0"/>
        <request index="8"  response="00000111100000011111" foes="10000111100000011111" cont="0"/>
        <request index="9"  response="01110111100000011110" foes="01110111100000011110" cont="0"/>
        <request index="10" response="00000000000000000000" foes="01110000000000000000" cont="0"/>
        <request index="11" response="00000000000000000000" foes="11110000001111110000" cont="0"/>
        <request index="12" response="00000000000000000000" foes="11110000001111110000" cont="0"/>
        <request index="13" response="00000000000000000000" foes="11110000001111110000" cont="0"/>
        <request index="14" response="00000000000000001110" foes="11110000001111001110" cont="1"/>
        <request index="15" response="00000000000000001110" foes="00000000000000001110" cont="0"/>
        <request index="16" response="00000111110000011110" foes="00000111111000011110" cont="0"/>
        <request index="17" response="00000111110000011110" foes="00000111111000011110" cont="0"/>
        <request index="18" response="00000111110000011110" foes="00000111111000011110" cont="0"/>
        <request index="19" response="00000111100111011110" foes="00000111100111011110" cont="0"/>
    </junction>
    <junction id="junction-north" type="dead_end" x="150.00" y="10.00" incLanes="edge-north-SN_0 edge-north-SN_1 edge-north-SN_2" intLanes="" shape="150.00,10.00 159.60,10.00 150.00,10.00"/>
    <junction id="junction-south" type="dead_end" x="150.00" y="-130.00" incLanes="edge-south-NS_0 edge-south-NS_1 edge-south-NS_2" intLanes="" shape="150.00,-130.00 140.40,-130.00 150.00,-130.00"/>
    <junction id="junction-west" type="dead_end" x="20.00" y="-60.00" incLanes="edge-west-EW_0 edge-west-EW_1 edge-west-EW_2" intLanes="" shape="20.00,-60.00 20.00,-50.40 20.00,-60.00"/>

    <junction id=":junction-intersection_20_0" type="internal" x="150.00" y="-55.80" incLanes=":junction-intersection_4_0 edge-south-SN_0 edge-south-SN_1 edge-south-SN_2" intLanes=":junction-intersection_6_0 :junction-intersection_6_1 :junction-intersection_6_2 :junction-intersection_9_0 :junction-intersection_10_0 :junction-intersection_11_0 :junction-intersection_11_1 :junction-intersection_11_2 :junction-intersection_16_0 :junction-intersection_16_1 :junction-intersection_16_2 :junction-intersection_19_0"/>
    <junction id=":junction-intersection_21_0" type="internal" x="150.00" y="-64.20" incLanes=":junction-intersection_14_0 edge-north-NS_0 edge-north-NS_1 edge-north-NS_2" intLanes=":junction-intersection_0_0 :junction-intersection_1_0 :junction-intersection_1_1 :junction-intersection_1_2 :junction-intersection_6_0 :junction-intersection_6_1 :junction-intersection_6_2 :junction-intersection_9_0 :junction-intersection_16_0 :junction-intersection_16_1 :junction-intersection_16_2 :junction-intersection_19_0"/>

    <connection from="edge-east-EW" to="edge-north-SN" fromLane="0" toLane="0" via=":junction-intersection_5_0" dir="r" state="m"/>
    <connection from="edge-east-EW" to="edge-west-EW" fromLane="0" toLane="0" via=":junction-intersection_6_0" dir="s" state="m"/>
    <connection from="edge-east-EW" to="edge-west-EW" fromLane="1" toLane="1" via=":junction-intersection_6_1" dir="s" state="m"/>
    <connection from="edge-east-EW" to="edge-west-EW" fromLane="2" toLane="2" via=":junction-intersection_6_2" dir="s" state="m"/>
    <connection from="edge-east-EW" to="edge-south-NS" fromLane="2" toLane="2" via=":junction-intersection_9_0" dir="l" state="m"/>
    <connection from="edge-north-NS" to="edge-west-EW" fromLane="0" toLane="0" via=":junction-intersection_0_0" dir="r" state="M"/>
    <connection from="edge-north-NS" to="edge-south-NS" fromLane="0" toLane="0" via=":junction-intersection_1_0" dir="s" state="M"/>
    <connection from="edge-north-NS" to="edge-south-NS" fromLane="1" toLane="1" via=":junction-intersection_1_1" dir="s" state="M"/>
    <connection from="edge-north-NS" to="edge-south-NS" fromLane="2" toLane="2" via=":junction-intersection_1_2" dir="s" state="M"/>
    <connection from="edge-north-NS" to="edge-east-WE" fromLane="2" toLane="2" via=":junction-intersection_4_0" dir="l" state="m"/>
    <connection from="edge-south-SN" to="edge-east-WE" fromLane="0" toLane="0" via=":junction-intersection_10_0" dir="r" state="M"/>
    <connection from="edge-south-SN" to="edge-north-SN" fromLane="0" toLane="0" via=":junction-intersection_11_0" dir="s" state="M"/>
    <connection from="edge-south-SN" to="edge-north-SN" fromLane="1" toLane="1" via=":junction-intersection_11_1" dir="s" state="M"/>
    <connection from="edge-south-SN" to="edge-north-SN" fromLane="2" toLane="2" via=":junction-intersection_11_2" dir="s" state="M"/>
    <connection from="edge-south-SN" to="edge-west-EW" fromLane="2" toLane="2" via=":junction-intersection_14_0" dir="l" state="m"/>
    <connection from="edge-west-WE" to="edge-south-NS" fromLane="0" toLane="0" via=":junction-intersection_15_0" dir="r" state="m"/>
    <connection from="edge-west-WE" to="edge-east-WE" fromLane="0" toLane="0" via=":junction-intersection_16_0" dir="s" state="m"/>
    <connection from="edge-west-WE" to="edge-east-WE" fromLane="1" toLane="1" via=":junction-intersection_16_1" dir="s" state="m"/>
    <connection from="edge-west-WE" to="edge-east-WE" fromLane="2" toLane="2" via=":junction-intersection_16_2" dir="s" state="m"/>
    <connection from="edge-west-WE" to="edge-north-SN" fromLane="2" toLane="2" via=":junction-intersection_19_0" dir="l" state="m"/>

    <connection from=":junction-intersection_0" to="edge-west-EW" fromLane="0" toLane="0" dir="r" state="M"/>
    <connection from=":junction-intersection_1" to="edge-south-NS" fromLane="0" toLane="0" dir="s" state="M"/>
    <connection from=":junction-intersection_1" to="edge-south-NS" fromLane="1" toLane="1" dir="s" state="M"/>
    <connection from=":junction-intersection_1" to="edge-south-NS" fromLane="2" toLane="2" dir="s" state="M"/>
    <connection from=":junction-intersection_4" to="edge-east-WE" fromLane="0" toLane="2" via=":junction-intersection_20_0" dir="l" state="m"/>
    <connection from=":junction-intersection_20" to="edge-east-WE" fromLane="0" toLane="2" dir="l" state="M"/>
    <connection from=":junction-intersection_5" to="edge-north-SN" fromLane="0" toLane="0" dir="r" state="M"/>
    <connection from=":junction-intersection_6" to="edge-west-EW" fromLane="0" toLane="0" dir="s" state="M"/>
    <connection from=":junction-intersection_6" to="edge-west-EW" fromLane="1" toLane="1" dir="s" state="M"/>
    <connection from=":junction-intersection_6" to="edge-west-EW" fromLane="2" toLane="2" dir="s" state="M"/>
    <connection from=":junction-intersection_9" to="edge-south-NS" fromLane="0" toLane="2" dir="l" state="M"/>
    <connection from=":junction-intersection_10" to="edge-east-WE" fromLane="0" toLane="0" dir="r" state="M"/>
    <connection from=":junction-intersection_11" to="edge-north-SN" fromLane="0" toLane="0" dir="s" state="M"/>
    <connection from=":junction-intersection_11" to="edge-north-SN" fromLane="1" toLane="1" dir="s" state="M"/>
    <connection from=":junction-intersection_11" to="edge-north-SN" fromLane="2" toLane="2" dir="s" state="M"/>
    <connection from=":junction-intersection_14" to="edge-west-EW" fromLane="0" toLane="2" via=":junction-intersection_21_0" dir="l" state="m"/>
    <connection from=":junction-intersection_21" to="edge-west-EW" fromLane="0" toLane="2" dir="l" state="M"/>
    <connection from=":junction-intersection_15" to="edge-south-NS" fromLane="0" toLane="0" dir="r" state="M"/>
    <connection from=":junction-intersection_16" to="edge-east-WE" fromLane="0" toLane="0" dir="s" state="M"/>
    <connection from=":junction-intersection_16" to="edge-east-WE" fromLane="1" toLane="1" dir="s" state="M"/>
    <connection from=":junction-intersection_16" to="edge-east-WE" fromLane="2" toLane="2" dir="s" state="M"/>
    <connection from=":junction-intersection_19" to="edge-north-SN" fromLane="0" toLane="2" dir="l" state="M"/>

</net>
