<?xml version="1.0" encoding="UTF-8"?>

<!-- generated on Thu 08 Apr 2021 12:19:01 AM EDT by Eclipse SUMO netedit Version 1.8.0
<configuration xmlns:xsi="http://www.w3.org/2001/XMLSchema-instance" xsi:noNamespaceSchemaLocation="http://sumo.dlr.de/xsd/netconvertConfiguration.xsd">

    <input>
        <sumo-net-file value="/home/kyber/work/SMARTS/scenarios/game_of_tag_simplified_map/map.net.xml"/>
    </input>

    <output>
        <output-file value="/home/kyber/work/SMARTS/scenarios/game_of_tag_simplified_map/map.net.xml"/>
    </output>

    <processing>
        <geometry.min-radius.fix.railways value="false"/>
        <geometry.max-grade.fix value="false"/>
        <offset.disable-normalization value="true"/>
        <lefthand value="false"/>
    </processing>

    <junctions>
        <no-internal-links value="true"/>
        <no-turnarounds value="true"/>
        <junctions.corner-detail value="5"/>
        <junctions.limit-turn-speed value="5.5"/>
        <rectangular-lane-cut value="false"/>
    </junctions>

    <pedestrian>
        <walkingareas value="false"/>
    </pedestrian>

    <report>
        <aggregate-warnings value="5"/>
    </report>

</configuration>
-->

<net version="1.6" junctionCornerDetail="5" limitTurnSpeed="5.50" xmlns:xsi="http://www.w3.org/2001/XMLSchema-instance" xsi:noNamespaceSchemaLocation="http://sumo.dlr.de/xsd/net_file.xsd">

    <location netOffset="0.00,0.00" convBoundary="-47.70,61.83,-23.09,84.04" origBoundary="-10000000000.00,-10000000000.00,10000000000.00,10000000000.00" projParameter="!"/>

    <edge id="bot" from="gneJ15" to="gneJ16" priority="-1">
        <lane id="bot_0" index="0" speed="13.89" length="33.15" shape="-55.20,75.73 -30.59,53.52"/>
        <lane id="bot_1" index="1" speed="13.89" length="33.15" shape="-53.06,78.10 -28.45,55.89"/>
        <lane id="bot_2" index="2" speed="13.89" length="33.15" shape="-50.91,80.48 -26.31,58.27"/>
        <lane id="bot_3" index="3" speed="13.89" length="33.15" shape="-48.77,82.85 -24.16,60.65"/>
    </edge>
    <edge id="top" from="gneJ16" to="gneJ15" priority="-1">
        <lane id="top_0" index="0" speed="13.89" length="33.15" shape="-15.59,70.15 -40.19,92.36"/>
        <lane id="top_1" index="1" speed="13.89" length="33.15" shape="-17.73,67.77 -42.34,89.98"/>
        <lane id="top_2" index="2" speed="13.89" length="33.15" shape="-19.87,65.40 -44.48,87.61"/>
        <lane id="top_3" index="3" speed="13.89" length="33.15" shape="-22.02,63.02 -46.62,85.23"/>
    </edge>

    <junction id="gneJ15" type="dead_end" x="-47.70" y="84.04" incLanes="top_0 top_1 top_2 top_3" intLanes="" shape="-47.70,84.04 -39.12,93.54 -47.70,84.04"/>
    <junction id="gneJ16" type="dead_end" x="-23.09" y="61.83" incLanes="bot_0 bot_1 bot_2 bot_3" intLanes="" shape="-23.09,61.83 -31.67,52.33 -23.09,61.83"/>

</net>
