<?xml version="1.0" encoding="UTF-8"?>

<!-- generated on Tue 20 Apr 2021 10:23:19 PM EDT by Eclipse SUMO netedit Version 1.8.0
<configuration xmlns:xsi="http://www.w3.org/2001/XMLSchema-instance" xsi:noNamespaceSchemaLocation="http://sumo.dlr.de/xsd/netconvertConfiguration.xsd">

    <input>
        <sumo-net-file value="/home/kyber/work/SMARTS/scenarios/game_of_tag_simplified_map/map.net.xml"/>
    </input>

    <output>
        <output-file value="/home/kyber/work/SMARTS/scenarios/game_of_tag_simplified_map/map.net.xml"/>
    </output>

    <processing>
        <geometry.min-radius.fix.railways value="false"/>
        <geometry.max-grade.fix value="false"/>
        <offset.disable-normalization value="true"/>
        <lefthand value="false"/>
    </processing>

    <junctions>
        <no-internal-links value="true"/>
        <no-turnarounds value="true"/>
        <junctions.corner-detail value="5"/>
        <junctions.limit-turn-speed value="5.5"/>
        <rectangular-lane-cut value="false"/>
    </junctions>

    <pedestrian>
        <walkingareas value="false"/>
    </pedestrian>

    <report>
        <aggregate-warnings value="5"/>
    </report>

</configuration>
-->

<net version="1.6" junctionCornerDetail="5" limitTurnSpeed="5.50" xmlns:xsi="http://www.w3.org/2001/XMLSchema-instance" xsi:noNamespaceSchemaLocation="http://sumo.dlr.de/xsd/net_file.xsd">

    <location netOffset="0.00,0.00" convBoundary="-73.98,56.49,83.65,86.41" origBoundary="-10000000000.00,-10000000000.00,10000000000.00,10000000000.00" projParameter="!"/>

    <edge id="gneE0" from="gneJ19" to="gneJ20" priority="-1">
        <lane id="gneE0_0" index="0" speed="13.89" length="49.02" shape="-74.86,83.61 -33.87,56.73"/>
    </edge>
    <edge id="gneE1" from="gneJ20" to="gneJ21" priority="-1">
        <lane id="gneE1_0" index="0" speed="13.89" length="48.58" shape="-32.06,56.77 5.91,83.91"/>
    </edge>
    <edge id="gneE2" from="gneJ21" to="gneJ22" priority="-1">
        <lane id="gneE2_0" index="0" speed="13.89" length="59.45" shape="7.64,83.99 57.79,55.10"/>
    </edge>
    <edge id="gneE3" from="gneJ22" to="gneJ23" priority="-1">
        <lane id="gneE3_0" index="0" speed="13.89" length="38.38" shape="59.80,55.44 84.86,84.51"/>
    </edge>

    <junction id="gneJ19" type="dead_end" x="-73.98" y="84.95" incLanes="" intLanes="" shape="-73.98,84.95 -75.74,82.27"/>
    <junction id="gneJ20" type="priority" x="-33.00" y="58.07" incLanes="gneE0_0" intLanes="" shape="-33.00,58.07 -31.13,55.46 -32.33,54.89 -32.93,54.81 -33.53,54.87 -34.14,55.06 -34.75,55.39">
        <request index="0" response="0" foes="0"/>
    </junction>
    <junction id="gneJ21" type="priority" x="6.66" y="86.41" incLanes="gneE1_0" intLanes="" shape="8.44,85.38 6.84,82.61 4.98,85.21 6.11,85.76 6.68,85.85 7.26,85.82 7.85,85.66">
        <request index="0" response="0" foes="0"/>
    </junction>
    <junction id="gneJ22" type="priority" x="58.59" y="56.49" incLanes="gneE2_0" intLanes="" shape="58.59,56.49 61.02,54.40 59.80,53.43 59.15,53.22 58.46,53.20 57.74,53.37 57.00,53.71">
        <request index="0" response="0" foes="0"/>
    </junction>
    <junction id="gneJ23" type="dead_end" x="83.65" y="85.56" incLanes="gneE3_0" intLanes="" shape="86.07,83.47 83.65,85.56"/>

    <connection from="gneE0" to="gneE1" fromLane="0" toLane="0" dir="l" state="M"/>
    <connection from="gneE1" to="gneE2" fromLane="0" toLane="0" dir="r" state="M"/>
    <connection from="gneE2" to="gneE3" fromLane="0" toLane="0" dir="l" state="M"/>

</net>
