<?xml version="1.0" encoding="UTF-8"?>

<!-- generated on Sun 04 Apr 2021 12:31:35 AM EDT by Eclipse SUMO netedit Version 1.8.0
<configuration xmlns:xsi="http://www.w3.org/2001/XMLSchema-instance" xsi:noNamespaceSchemaLocation="http://sumo.dlr.de/xsd/netconvertConfiguration.xsd">

    <output>
        <output-file value="/home/kyber/work/SMARTS/scenarios/game_of_tag_simplified_map/map.net.xml"/>
    </output>

    <processing>
        <offset.disable-normalization value="true"/>
    </processing>

    <junctions>
        <no-turnarounds value="true"/>
    </junctions>

    <report>
        <aggregate-warnings value="5"/>
    </report>

</configuration>
-->

<net version="1.6" junctionCornerDetail="5" limitTurnSpeed="5.50" xmlns:xsi="http://www.w3.org/2001/XMLSchema-instance" xsi:noNamespaceSchemaLocation="http://sumo.dlr.de/xsd/net_file.xsd">

    <location netOffset="0.00,0.00" convBoundary="-32.58,69.39,10.21,69.52" origBoundary="10000000000.00,10000000000.00,-10000000000.00,-10000000000.00" projParameter="!"/>

    <edge id="bottom" from="gneJ11" to="gneJ12" priority="-1">
        <lane id="bottom_0" index="0" speed="13.89" length="42.80" shape="-32.54,54.99 10.25,55.12"/>
        <lane id="bottom_1" index="1" speed="13.89" length="42.80" shape="-32.55,58.19 10.24,58.32"/>
        <lane id="bottom_2" index="2" speed="13.89" length="42.80" shape="-32.56,61.39 10.23,61.52"/>
        <lane id="bottom_3" index="3" speed="13.89" length="42.80" shape="-32.57,64.59 10.22,64.72"/>
        <lane id="bottom_4" index="4" speed="13.89" length="42.80" shape="-32.58,67.79 10.22,67.92"/>
    </edge>
    <edge id="top" from="gneJ12" to="gneJ11" priority="-1">
        <lane id="top_0" index="0" speed="13.89" length="42.80" shape="10.17,83.92 -32.63,83.79"/>
        <lane id="top_1" index="1" speed="13.89" length="42.80" shape="10.18,80.72 -32.62,80.59"/>
        <lane id="top_2" index="2" speed="13.89" length="42.80" shape="10.19,77.52 -32.61,77.39"/>
        <lane id="top_3" index="3" speed="13.89" length="42.80" shape="10.20,74.32 -32.60,74.19"/>
        <lane id="top_4" index="4" speed="13.89" length="42.80" shape="10.21,71.12 -32.59,70.99"/>
    </edge>

    <junction id="gneJ11" type="dead_end" x="-32.58" y="69.39" incLanes="top_0 top_1 top_2 top_3 top_4" intLanes="" shape="-32.58,69.39 -32.63,85.39 -32.58,69.39"/>
    <junction id="gneJ12" type="dead_end" x="10.21" y="69.52" incLanes="bottom_0 bottom_1 bottom_2 bottom_3 bottom_4" intLanes="" shape="10.21,69.52 10.26,53.52 10.21,69.52"/>

</net>
