<?xml version="1.0" encoding="UTF-8"?>

<!-- generated on Thu Apr  8 17:23:05 2021 by Eclipse SUMO netconvert Version 1.8.0
<configuration xmlns:xsi="http://www.w3.org/2001/XMLSchema-instance" xsi:noNamespaceSchemaLocation="http://sumo.dlr.de/xsd/netconvertConfiguration.xsd">

    <input>
        <sumo-net-file value="scenarios/game_of_tag_simplified_map/map.net.xml"/>
    </input>

    <output>
        <output-file value="scenarios/game_of_tag_simplified_map/shifted_map-AUTOGEN.net.xml"/>
    </output>

    <processing>
        <geometry.min-radius.fix.railways value="false"/>
        <geometry.max-grade.fix value="false"/>
        <offset.disable-normalization value="false"/>
        <lefthand value="false"/>
    </processing>

    <junctions>
        <no-internal-links value="true"/>
        <no-turnarounds value="true"/>
        <junctions.corner-detail value="5"/>
        <junctions.limit-turn-speed value="5.5"/>
        <rectangular-lane-cut value="false"/>
    </junctions>

    <pedestrian>
        <walkingareas value="false"/>
    </pedestrian>

    <report>
        <aggregate-warnings value="5"/>
    </report>

</configuration>
-->

<net version="1.6" junctionCornerDetail="5" limitTurnSpeed="5.50" xmlns:xsi="http://www.w3.org/2001/XMLSchema-instance" xsi:noNamespaceSchemaLocation="http://sumo.dlr.de/xsd/net_file.xsd">

    <location netOffset="47.70,-61.83" convBoundary="0.00,0.00,24.61,22.21" origBoundary="-10000000000.00,-10000000000.00,10000000000.00,10000000000.00" projParameter="!"/>

    <edge id="bot" from="gneJ15" to="gneJ16" priority="-1">
        <lane id="bot_0" index="0" speed="13.89" length="33.15" shape="-7.50,13.90 17.11,-8.31"/>
        <lane id="bot_1" index="1" speed="13.89" length="33.15" shape="-5.36,16.27 19.25,-5.94"/>
        <lane id="bot_2" index="2" speed="13.89" length="33.15" shape="-3.22,18.65 21.39,-3.56"/>
        <lane id="bot_3" index="3" speed="13.89" length="33.15" shape="-1.07,21.02 23.54,-1.19"/>
    </edge>
    <edge id="top" from="gneJ16" to="gneJ15" priority="-1">
        <lane id="top_0" index="0" speed="13.89" length="33.15" shape="32.11,8.31 7.50,30.52"/>
        <lane id="top_1" index="1" speed="13.89" length="33.15" shape="29.97,5.94 5.36,28.15"/>
        <lane id="top_2" index="2" speed="13.89" length="33.15" shape="27.83,3.56 3.22,25.77"/>
        <lane id="top_3" index="3" speed="13.89" length="33.15" shape="25.68,1.19 1.07,23.40"/>
    </edge>

    <junction id="gneJ15" type="dead_end" x="0.00" y="22.21" incLanes="top_0 top_1 top_2 top_3" intLanes="" shape="0.00,22.21 8.58,31.71 0.00,22.21"/>
    <junction id="gneJ16" type="dead_end" x="24.61" y="0.00" incLanes="bot_0 bot_1 bot_2 bot_3" intLanes="" shape="24.61,0.00 16.03,-9.50 24.61,0.00"/>

</net>
