<?xml version="1.0" encoding="UTF-8"?>

<!-- generated on Fri  8 May 00:38:59 2020 by Eclipse SUMO netedit Version 1.5.0
<configuration xmlns:xsi="http://www.w3.org/2001/XMLSchema-instance" xsi:noNamespaceSchemaLocation="http://sumo.dlr.de/xsd/netconvertConfiguration.xsd">

    <input>
        <sumo-net-file value="/Users/julian/src/HiWay/scenarios/intersections/4lane_t/map.net.xml"/>
    </input>

    <output>
        <output-file value="/Users/julian/src/HiWay/scenarios/intersections/4lane_t/map.net.xml"/>
    </output>

    <processing>
        <geometry.min-radius.fix.railways value="false"/>
        <geometry.max-grade.fix value="false"/>
        <offset.disable-normalization value="true"/>
        <lefthand value="false"/>
    </processing>

    <junctions>
        <no-turnarounds value="true"/>
        <junctions.corner-detail value="5"/>
        <junctions.limit-turn-speed value="5.5"/>
        <rectangular-lane-cut value="false"/>
    </junctions>

    <pedestrian>
        <walkingareas value="false"/>
    </pedestrian>

    <report>
        <aggregate-warnings value="5"/>
    </report>

</configuration>
-->

<net version="1.3" junctionCornerDetail="5" limitTurnSpeed="5.50" xmlns:xsi="http://www.w3.org/2001/XMLSchema-instance" xsi:noNamespaceSchemaLocation="http://sumo.dlr.de/xsd/net_file.xsd">

    <location netOffset="0.00,0.00" convBoundary="0.00,0.00,200.00,100.00" origBoundary="-10000000000.00,-10000000000.00,10000000000.00,10000000000.00" projParameter="!"/>

    <edge id=":junction-intersection_0" function="internal">
        <lane id=":junction-intersection_0_0" index="0" speed="5.00" length="20.80" shape="110.40,104.80 89.60,104.80"/>
        <lane id=":junction-intersection_0_1" index="1" speed="5.00" length="20.80" shape="110.40,101.60 89.60,101.60"/>
    </edge>
    <edge id=":junction-intersection_2" function="internal">
        <lane id=":junction-intersection_2_0" index="0" speed="5.00" length="6.96" shape="110.40,101.60 105.15,100.85 103.73,100.00"/>
    </edge>
    <edge id=":junction-intersection_8" function="internal">
        <lane id=":junction-intersection_8_0" index="0" speed="5.00" length="12.40" shape="103.73,100.00 101.40,98.60 99.15,94.85 98.40,89.60"/>
    </edge>
    <edge id=":junction-intersection_3" function="internal">
        <lane id=":junction-intersection_3_0" index="0" speed="5.00" length="9.03" shape="104.80,89.60 105.15,92.05 106.20,93.80 107.95,94.85 110.40,95.20"/>
    </edge>
    <edge id=":junction-intersection_4" function="internal">
        <lane id=":junction-intersection_4_0" index="0" speed="5.00" length="19.35" shape="101.60,89.60 100.85,94.85 98.60,98.60 94.85,100.85 89.60,101.60"/>
    </edge>
    <edge id=":junction-intersection_5" function="internal">
        <lane id=":junction-intersection_5_0" index="0" speed="5.00" length="9.03" shape="89.60,95.20 92.05,94.85 93.80,93.80 94.85,92.05 95.20,89.60"/>
    </edge>
    <edge id=":junction-intersection_6" function="internal">
        <lane id=":junction-intersection_6_0" index="0" speed="5.00" length="20.80" shape="89.60,95.20 110.40,95.20"/>
        <lane id=":junction-intersection_6_1" index="1" speed="5.00" length="20.80" shape="89.60,98.40 110.40,98.40"/>
    </edge>

    <edge id="edge-east-EW" from="junction-east" to="junction-intersection" priority="-1">
        <lane id="edge-east-EW_0" index="0" speed="5.00" length="89.60" shape="200.00,104.80 110.40,104.80"/>
        <lane id="edge-east-EW_1" index="1" speed="5.00" length="89.60" shape="200.00,101.60 110.40,101.60"/>
    </edge>
    <edge id="edge-east-WE" from="junction-intersection" to="junction-east" priority="-1">
        <lane id="edge-east-WE_0" index="0" speed="5.00" length="89.60" shape="110.40,95.20 200.00,95.20"/>
        <lane id="edge-east-WE_1" index="1" speed="5.00" length="89.60" shape="110.40,98.40 200.00,98.40"/>
    </edge>
    <edge id="edge-south-NS" from="junction-intersection" to="junction-south" priority="-1">
        <lane id="edge-south-NS_0" index="0" speed="5.00" length="89.60" shape="95.20,89.60 95.20,0.00"/>
        <lane id="edge-south-NS_1" index="1" speed="5.00" length="89.60" shape="98.40,89.60 98.40,0.00"/>
    </edge>
    <edge id="edge-south-SN" from="junction-south" to="junction-intersection" priority="-1">
        <lane id="edge-south-SN_0" index="0" speed="5.00" length="89.60" shape="104.80,0.00 104.80,89.60"/>
        <lane id="edge-south-SN_1" index="1" speed="5.00" length="89.60" shape="101.60,0.00 101.60,89.60"/>
    </edge>
    <edge id="edge-west-EW" from="junction-intersection" to="junction-west" priority="-1">
        <lane id="edge-west-EW_0" index="0" speed="5.00" length="89.60" shape="89.60,104.80 0.00,104.80"/>
        <lane id="edge-west-EW_1" index="1" speed="5.00" length="89.60" shape="89.60,101.60 0.00,101.60"/>
    </edge>
    <edge id="edge-west-WE" from="junction-west" to="junction-intersection" priority="-1">
        <lane id="edge-west-WE_0" index="0" speed="5.00" length="89.60" shape="0.00,95.20 89.60,95.20"/>
        <lane id="edge-west-WE_1" index="1" speed="5.00" length="89.60" shape="0.00,98.40 89.60,98.40"/>
    </edge>

    <junction id="junction-east" type="dead_end" x="200.00" y="100.00" incLanes="edge-east-WE_0 edge-east-WE_1" intLanes="" shape="200.00,100.00 200.00,93.60 200.00,100.00"/>
    <junction id="junction-intersection" type="priority" x="100.00" y="100.00" incLanes="edge-east-EW_0 edge-east-EW_1 edge-south-SN_0 edge-south-SN_1 edge-west-WE_0 edge-west-WE_1" intLanes=":junction-intersection_0_0 :junction-intersection_0_1 :junction-intersection_8_0 :junction-intersection_3_0 :junction-intersection_4_0 :junction-intersection_5_0 :junction-intersection_6_0 :junction-intersection_6_1" shape="110.40,106.40 110.40,93.60 108.18,93.16 107.40,92.60 106.84,91.82 106.51,90.82 106.40,89.60 93.60,89.60 93.16,91.82 92.60,92.60 91.82,93.16 90.82,93.49 89.60,93.60 89.60,106.40">
        <request index="0" response="00000000" foes="00010000" cont="0"/>
        <request index="1" response="00000000" foes="00010000" cont="0"/>
        <request index="2" response="11000000" foes="11010000" cont="1"/>
        <request index="3" response="11000000" foes="11000000" cont="0"/>
        <request index="4" response="11000111" foes="11000111" cont="0"/>
        <request index="5" response="00000000" foes="00000000" cont="0"/>
        <request index="6" response="00000000" foes="00011100" cont="0"/>
        <request index="7" response="00000000" foes="00011100" cont="0"/>
    </junction>
    <junction id="junction-south" type="dead_end" x="100.00" y="0.00" incLanes="edge-south-NS_0 edge-south-NS_1" intLanes="" shape="100.00,0.00 93.60,0.00 100.00,0.00"/>
    <junction id="junction-west" type="dead_end" x="0.00" y="100.00" incLanes="edge-west-EW_0 edge-west-EW_1" intLanes="" shape="0.00,100.00 0.00,106.40 0.00,100.00"/>

    <junction id=":junction-intersection_8_0" type="internal" x="103.73" y="100.00" incLanes=":junction-intersection_2_0 edge-west-WE_0 edge-west-WE_1" intLanes=":junction-intersection_4_0 :junction-intersection_6_0 :junction-intersection_6_1"/>

    <connection from="edge-east-EW" to="edge-west-EW" fromLane="0" toLane="0" via=":junction-intersection_0_0" dir="s" state="M"/>
    <connection from="edge-east-EW" to="edge-west-EW" fromLane="1" toLane="1" via=":junction-intersection_0_1" dir="s" state="M"/>
    <connection from="edge-east-EW" to="edge-south-NS" fromLane="1" toLane="1" via=":junction-intersection_2_0" dir="l" state="m"/>
    <connection from="edge-south-SN" to="edge-east-WE" fromLane="0" toLane="0" via=":junction-intersection_3_0" dir="r" state="m"/>
    <connection from="edge-south-SN" to="edge-west-EW" fromLane="1" toLane="1" via=":junction-intersection_4_0" dir="l" state="m"/>
    <connection from="edge-west-WE" to="edge-south-NS" fromLane="0" toLane="0" via=":junction-intersection_5_0" dir="r" state="M"/>
    <connection from="edge-west-WE" to="edge-east-WE" fromLane="0" toLane="0" via=":junction-intersection_6_0" dir="s" state="M"/>
    <connection from="edge-west-WE" to="edge-east-WE" fromLane="1" toLane="1" via=":junction-intersection_6_1" dir="s" state="M"/>

    <connection from=":junction-intersection_0" to="edge-west-EW" fromLane="0" toLane="0" dir="s" state="M"/>
    <connection from=":junction-intersection_0" to="edge-west-EW" fromLane="1" toLane="1" dir="s" state="M"/>
    <connection from=":junction-intersection_2" to="edge-south-NS" fromLane="0" toLane="1" via=":junction-intersection_8_0" dir="l" state="m"/>
    <connection from=":junction-intersection_8" to="edge-south-NS" fromLane="0" toLane="1" dir="l" state="M"/>
    <connection from=":junction-intersection_3" to="edge-east-WE" fromLane="0" toLane="0" dir="r" state="M"/>
    <connection from=":junction-intersection_4" to="edge-west-EW" fromLane="0" toLane="1" dir="l" state="M"/>
    <connection from=":junction-intersection_5" to="edge-south-NS" fromLane="0" toLane="0" dir="r" state="M"/>
    <connection from=":junction-intersection_6" to="edge-east-WE" fromLane="0" toLane="0" dir="s" state="M"/>
    <connection from=":junction-intersection_6" to="edge-east-WE" fromLane="1" toLane="1" dir="s" state="M"/>

</net>
