<?xml version="1.0" encoding="UTF-8"?>

<!-- generated on Wed 19 Aug 2020 05:04:53 PM EDT by Eclipse SUMO netedit Version v1_5_0+1104-53a79c6
<configuration xmlns:xsi="http://www.w3.org/2001/XMLSchema-instance" xsi:noNamespaceSchemaLocation="http://sumo.dlr.de/xsd/netconvertConfiguration.xsd">

    <input>
        <sumo-net-file value="/home/kyber/MainProjectSMARTS/SMARTS/scenarios/controller_test_maps/2lane_t_55_deg/map.net.xml"/>
    </input>

    <output>
        <output-file value="/home/kyber/MainProjectSMARTS/SMARTS/scenarios/controller_test_maps/2lane_t_55_deg/map.net.xml"/>
    </output>

    <processing>
        <geometry.min-radius.fix.railways value="false"/>
        <geometry.max-grade.fix value="false"/>
        <offset.disable-normalization value="true"/>
        <lefthand value="false"/>
    </processing>

    <junctions>
        <no-turnarounds value="true"/>
        <junctions.corner-detail value="5"/>
        <junctions.limit-turn-speed value="5.5"/>
        <rectangular-lane-cut value="false"/>
    </junctions>

    <pedestrian>
        <walkingareas value="false"/>
    </pedestrian>

    <report>
        <aggregate-warnings value="5"/>
    </report>

</configuration>
-->

<net version="1.6" junctionCornerDetail="5" limitTurnSpeed="5.50" xmlns:xsi="http://www.w3.org/2001/XMLSchema-instance" xsi:noNamespaceSchemaLocation="http://sumo.dlr.de/xsd/net_file.xsd">

    <location netOffset="0.00,0.00" convBoundary="0.00,0.00,200.00,100.00" origBoundary="-10000000000.00,-10000000000.00,10000000000.00,10000000000.00" projParameter="!"/>

    <edge id=":junction-intersection_0" function="internal">
        <lane id=":junction-intersection_0_0" index="0" speed="12.55" length="18.52" shape="108.92,97.33 104.46,99.00 100.00,99.56 95.54,99.00 91.08,97.33"/>
    </edge>
    <edge id=":junction-intersection_1" function="internal">
        <lane id=":junction-intersection_1_0" index="0" speed="7.44" length="8.78" shape="108.92,97.33 104.32,98.89 101.03,98.33 100.69,97.86"/>
    </edge>
    <edge id=":junction-intersection_6" function="internal">
        <lane id=":junction-intersection_6_0" index="0" speed="7.44" length="7.62" shape="100.69,97.86 99.06,95.64 98.40,90.82"/>
    </edge>
    <edge id=":junction-intersection_2" function="internal">
        <lane id=":junction-intersection_2_0" index="0" speed="5.74" length="9.18" shape="101.60,90.82 101.97,93.52 103.07,95.03 104.91,95.34 107.49,94.46"/>
    </edge>
    <edge id=":junction-intersection_3" function="internal">
        <lane id=":junction-intersection_3_0" index="0" speed="7.44" length="16.40" shape="101.60,90.82 100.94,95.64 98.97,98.33 95.68,98.89 91.08,97.33"/>
    </edge>
    <edge id=":junction-intersection_4" function="internal">
        <lane id=":junction-intersection_4_0" index="0" speed="5.74" length="9.18" shape="92.51,94.46 95.09,95.34 96.93,95.03 98.03,93.52 98.40,90.82"/>
    </edge>
    <edge id=":junction-intersection_5" function="internal">
        <lane id=":junction-intersection_5_0" index="0" speed="11.53" length="15.55" shape="92.51,94.46 96.25,95.87 100.00,96.34 103.75,95.87 107.49,94.46"/>
    </edge>

    <edge id="edge-east-EW" from="junction-east" to="junction-intersection" priority="-1">
        <lane id="edge-east-EW_0" index="0" speed="13.89" length="102.63" shape="200.72,51.43 108.92,97.33"/>
    </edge>
    <edge id="edge-east-WE" from="junction-intersection" to="junction-east" priority="-1">
        <lane id="edge-east-WE_0" index="0" speed="13.89" length="102.63" shape="107.49,94.46 199.28,48.57"/>
    </edge>
    <edge id="edge-south-NS" from="junction-intersection" to="junction-south" priority="-1">
        <lane id="edge-south-NS_0" index="0" speed="13.89" length="90.82" shape="98.40,90.82 98.40,0.00"/>
    </edge>
    <edge id="edge-south-SN" from="junction-south" to="junction-intersection" priority="-1">
        <lane id="edge-south-SN_0" index="0" speed="13.89" length="90.82" shape="101.60,0.00 101.60,90.82"/>
    </edge>
    <edge id="edge-west-EW" from="junction-intersection" to="junction-west" priority="-1">
        <lane id="edge-west-EW_0" index="0" speed="13.89" length="102.63" shape="91.08,97.33 -0.72,51.43"/>
    </edge>
    <edge id="edge-west-WE" from="junction-west" to="junction-intersection" priority="-1">
        <lane id="edge-west-WE_0" index="0" speed="13.89" length="102.63" shape="0.72,48.57 92.51,94.46"/>
    </edge>

    <junction id="junction-east" type="dead_end" x="200.00" y="50.00" incLanes="edge-east-WE_0" intLanes="" shape="200.00,50.00 198.57,47.14 200.00,50.00"/>
    <junction id="junction-intersection" type="priority" x="100.00" y="100.00" incLanes="edge-east-EW_0 edge-south-SN_0 edge-west-WE_0" intLanes=":junction-intersection_0_0 :junction-intersection_6_0 :junction-intersection_2_0 :junction-intersection_3_0 :junction-intersection_4_0 :junction-intersection_5_0" shape="109.64,98.76 106.78,93.03 104.79,93.58 104.09,93.38 103.60,92.85 103.30,91.99 103.20,90.82 96.80,90.82 96.40,92.85 95.91,93.38 95.21,93.58 94.32,93.47 93.22,93.03 90.36,98.76 93.57,100.10 96.79,100.90 100.00,101.17 103.21,100.90 106.43,100.10">
        <request index="0" response="000000" foes="001000" cont="0"/>
        <request index="1" response="110000" foes="111000" cont="1"/>
        <request index="2" response="100000" foes="100000" cont="0"/>
        <request index="3" response="100011" foes="100011" cont="0"/>
        <request index="4" response="000000" foes="000010" cont="0"/>
        <request index="5" response="000000" foes="001110" cont="0"/>
    </junction>
    <junction id="junction-south" type="dead_end" x="100.00" y="0.00" incLanes="edge-south-NS_0" intLanes="" shape="100.00,0.00 96.80,0.00 100.00,0.00"/>
    <junction id="junction-west" type="dead_end" x="0.00" y="50.00" incLanes="edge-west-EW_0" intLanes="" shape="-0.00,50.00 -1.43,52.86 0.00,50.00"/>

    <junction id=":junction-intersection_6_0" type="internal" x="100.69" y="97.86" incLanes=":junction-intersection_1_0 edge-west-WE_0" intLanes=":junction-intersection_3_0 :junction-intersection_4_0 :junction-intersection_5_0"/>

    <connection from="edge-east-EW" to="edge-west-EW" fromLane="0" toLane="0" via=":junction-intersection_0_0" dir="L" state="M"/>
    <connection from="edge-east-EW" to="edge-south-NS" fromLane="0" toLane="0" via=":junction-intersection_1_0" dir="l" state="m"/>
    <connection from="edge-south-SN" to="edge-east-WE" fromLane="0" toLane="0" via=":junction-intersection_2_0" dir="r" state="m"/>
    <connection from="edge-south-SN" to="edge-west-EW" fromLane="0" toLane="0" via=":junction-intersection_3_0" dir="l" state="m"/>
    <connection from="edge-west-WE" to="edge-south-NS" fromLane="0" toLane="0" via=":junction-intersection_4_0" dir="r" state="M"/>
    <connection from="edge-west-WE" to="edge-east-WE" fromLane="0" toLane="0" via=":junction-intersection_5_0" dir="R" state="M"/>

    <connection from=":junction-intersection_0" to="edge-west-EW" fromLane="0" toLane="0" dir="L" state="M"/>
    <connection from=":junction-intersection_1" to="edge-south-NS" fromLane="0" toLane="0" via=":junction-intersection_6_0" dir="l" state="m"/>
    <connection from=":junction-intersection_6" to="edge-south-NS" fromLane="0" toLane="0" dir="l" state="M"/>
    <connection from=":junction-intersection_2" to="edge-east-WE" fromLane="0" toLane="0" dir="r" state="M"/>
    <connection from=":junction-intersection_3" to="edge-west-EW" fromLane="0" toLane="0" dir="l" state="M"/>
    <connection from=":junction-intersection_4" to="edge-south-NS" fromLane="0" toLane="0" dir="r" state="M"/>
    <connection from=":junction-intersection_5" to="edge-east-WE" fromLane="0" toLane="0" dir="R" state="M"/>

</net>
