<?xml version="1.0" encoding="UTF-8"?>

<!-- generated on 11/03/20 21:36:12 by Eclipse SUMO netedit Version 1.6.0
<configuration xmlns:xsi="http://www.w3.org/2001/XMLSchema-instance" xsi:noNamespaceSchemaLocation="http://sumo.dlr.de/xsd/netconvertConfiguration.xsd">

    <input>
        <sumo-net-file value="Y:\SMARTS\scenarios_fzg\straight_uturn\map.net.xml"/>
    </input>

    <output>
        <output-file value="Y:\SMARTS\scenarios_fzg\straight_uturn\map.net.xml"/>
    </output>

    <processing>
        <geometry.min-radius.fix.railways value="false"/>
        <geometry.max-grade.fix value="false"/>
        <offset.disable-normalization value="true"/>
        <lefthand value="false"/>
    </processing>

    <junctions>
        <no-turnarounds value="true"/>
        <junctions.corner-detail value="5"/>
        <junctions.limit-turn-speed value="5.5"/>
        <rectangular-lane-cut value="false"/>
    </junctions>

    <pedestrian>
        <walkingareas value="false"/>
    </pedestrian>

    <report>
        <aggregate-warnings value="5"/>
    </report>

</configuration>
-->

<net version="1.6" junctionCornerDetail="5" limitTurnSpeed="5.50" xmlns:xsi="http://www.w3.org/2001/XMLSchema-instance" xsi:noNamespaceSchemaLocation="http://sumo.dlr.de/xsd/net_file.xsd">

    <location netOffset="0.00,0.00" convBoundary="-300.00,-200.00,560.00,330.00" origBoundary="-10000000000.00,-10000000000.00,10000000000.00,10000000000.00" projParameter="!"/>

    <edge id=":J3_0" function="internal">
        <lane id=":J3_0_0" index="0" speed="6.62" length="9.27" width="3.50" shape="-48.75,74.50 -49.11,71.98 -50.19,70.19 -51.98,69.11 -54.50,68.75"/>
    </edge>
    <edge id=":J3_1" function="internal">
        <lane id=":J3_1_0" index="0" speed="7.50" length="12.23" width="3.50" shape="-48.75,74.50 -49.11,70.45 -50.19,67.56 -51.98,65.83 -54.50,65.25"/>
    </edge>
    <edge id=":J3_2" function="internal">
        <lane id=":J3_2_0" index="0" speed="8.32" length="15.35" width="3.50" shape="-48.75,74.50 -49.11,68.92 -50.19,64.94 -51.98,62.55 -54.50,61.75"/>
    </edge>
    <edge id=":J3_3" function="internal">
        <lane id=":J3_3_0" index="0" speed="40.00" length="29.00" width="3.50" shape="-45.25,74.50 -45.25,45.50"/>
    </edge>
    <edge id=":J3_4" function="internal">
        <lane id=":J3_4_0" index="0" speed="11.81" length="18.10" width="3.50" shape="-41.75,74.50 -40.73,64.33 -37.69,57.06"/>
    </edge>
    <edge id=":J3_5" function="internal">
        <lane id=":J3_5_0" index="0" speed="11.27" length="13.51" width="3.50" shape="-41.75,74.50 -40.73,65.86 -38.60,61.54"/>
    </edge>
    <edge id=":J3_6" function="internal">
        <lane id=":J3_6_0" index="0" speed="10.72" length="9.93" width="3.50" shape="-41.75,74.50 -40.73,67.39 -39.32,65.03"/>
    </edge>
    <edge id=":J3_36" function="internal">
        <lane id=":J3_36_0" index="0" speed="11.81" length="13.95" width="3.50" shape="-37.69,57.06 -32.61,52.70 -25.50,51.25"/>
    </edge>
    <edge id=":J3_37" function="internal">
        <lane id=":J3_37_0" index="0" speed="11.27" length="15.57" width="3.50" shape="-38.60,61.54 -37.69,59.69 -32.61,55.98 -25.50,54.75"/>
    </edge>
    <edge id=":J3_38" function="internal">
        <lane id=":J3_38_0" index="0" speed="10.72" length="16.28" width="3.50" shape="-39.32,65.03 -37.69,62.31 -32.61,59.27 -25.50,58.25"/>
    </edge>
    <edge id=":J3_7" function="internal">
        <lane id=":J3_7_0" index="0" speed="6.62" length="9.27" width="3.50" shape="-25.50,68.75 -28.02,69.11 -29.81,70.19 -30.89,71.98 -31.25,74.50"/>
    </edge>
    <edge id=":J3_8" function="internal">
        <lane id=":J3_8_0" index="0" speed="7.50" length="12.23" width="3.50" shape="-25.50,68.75 -29.55,69.11 -32.44,70.19 -34.17,71.98 -34.75,74.50"/>
    </edge>
    <edge id=":J3_9" function="internal">
        <lane id=":J3_9_0" index="0" speed="8.32" length="15.35" width="3.50" shape="-25.50,68.75 -31.08,69.11 -35.06,70.19 -37.45,71.98 -38.25,74.50"/>
    </edge>
    <edge id=":J3_10" function="internal">
        <lane id=":J3_10_0" index="0" speed="40.00" length="29.32" width="3.50" shape="-25.50,65.25 -34.14,65.80 -40.00,67.00 -45.86,68.20 -54.50,68.75"/>
        <lane id=":J3_10_1" index="1" speed="40.00" length="29.32" width="3.50" shape="-25.50,65.25 -54.50,65.25"/>
        <lane id=":J3_10_2" index="2" speed="40.00" length="29.32" width="3.50" shape="-25.50,65.25 -34.14,64.70 -40.00,63.50 -45.86,62.30 -54.50,61.75"/>
        <lane id=":J3_10_3" index="3" speed="40.00" length="29.32" width="3.50" shape="-25.50,61.75 -34.23,62.84 -40.00,65.25 -45.77,67.66 -54.50,68.75"/>
        <lane id=":J3_10_4" index="4" speed="40.00" length="29.32" width="3.50" shape="-25.50,61.75 -34.14,62.30 -40.00,63.50 -45.86,64.70 -54.50,65.25"/>
        <lane id=":J3_10_5" index="5" speed="40.00" length="29.32" width="3.50" shape="-25.50,61.75 -54.50,61.75"/>
    </edge>
    <edge id=":J3_16" function="internal">
        <lane id=":J3_16_0" index="0" speed="11.81" length="32.05" width="3.50" shape="-25.50,61.75 -35.67,60.73 -42.94,57.69 -47.30,52.61 -48.75,45.50"/>
    </edge>
    <edge id=":J3_17" function="internal">
        <lane id=":J3_17_0" index="0" speed="11.27" length="29.08" width="3.50" shape="-25.50,61.75 -34.14,60.73 -40.31,57.69 -44.02,52.61 -45.25,45.50"/>
    </edge>
    <edge id=":J3_18" function="internal">
        <lane id=":J3_18_0" index="0" speed="10.72" length="26.21" width="3.50" shape="-25.50,61.75 -32.61,60.73 -37.69,57.69 -40.73,52.61 -41.75,45.50"/>
    </edge>
    <edge id=":J3_19" function="internal">
        <lane id=":J3_19_0" index="0" speed="4.93" length="10.22" width="3.50" shape="-25.50,61.75 -28.13,60.00 -29.00,58.25 -28.13,56.50 -25.50,54.75"/>
    </edge>
    <edge id=":J3_20" function="internal">
        <lane id=":J3_20_0" index="0" speed="6.62" length="9.27" width="3.50" shape="-31.25,45.50 -30.89,48.02 -29.81,49.81 -28.02,50.89 -25.50,51.25"/>
    </edge>
    <edge id=":J3_21" function="internal">
        <lane id=":J3_21_0" index="0" speed="7.50" length="12.23" width="3.50" shape="-31.25,45.50 -30.89,49.55 -29.81,52.44 -28.02,54.17 -25.50,54.75"/>
    </edge>
    <edge id=":J3_22" function="internal">
        <lane id=":J3_22_0" index="0" speed="8.32" length="15.35" width="3.50" shape="-31.25,45.50 -30.89,51.08 -29.81,55.06 -28.02,57.45 -25.50,58.25"/>
    </edge>
    <edge id=":J3_23" function="internal">
        <lane id=":J3_23_0" index="0" speed="40.00" length="29.19" width="3.50" shape="-34.75,45.50 -34.20,54.14 -33.00,60.00 -31.80,65.86 -31.25,74.50"/>
        <lane id=":J3_23_1" index="1" speed="40.00" length="29.19" width="3.50" shape="-34.75,45.50 -34.75,74.50"/>
        <lane id=":J3_23_2" index="2" speed="40.00" length="29.19" width="3.50" shape="-34.75,45.50 -35.30,54.14 -36.50,60.00 -37.70,65.86 -38.25,74.50"/>
    </edge>
    <edge id=":J3_26" function="internal">
        <lane id=":J3_26_0" index="0" speed="11.81" length="19.67" width="3.50" shape="-38.25,45.50 -39.27,55.67 -42.31,62.94 -43.50,63.96"/>
    </edge>
    <edge id=":J3_27" function="internal">
        <lane id=":J3_27_0" index="0" speed="11.27" length="17.05" width="3.50" shape="-38.25,45.50 -39.27,54.14 -42.31,60.31 -43.50,61.18"/>
    </edge>
    <edge id=":J3_28" function="internal">
        <lane id=":J3_28_0" index="0" speed="10.72" length="14.49" width="3.50" shape="-38.25,45.50 -39.27,52.61 -42.31,57.69 -43.50,58.40"/>
    </edge>
    <edge id=":J3_39" function="internal">
        <lane id=":J3_39_0" index="0" speed="11.81" length="12.38" width="3.50" shape="-43.50,63.96 -47.39,67.30 -54.50,68.75"/>
    </edge>
    <edge id=":J3_40" function="internal">
        <lane id=":J3_40_0" index="0" speed="11.27" length="12.03" width="3.50" shape="-43.50,61.18 -47.39,64.02 -54.50,65.25"/>
    </edge>
    <edge id=":J3_41" function="internal">
        <lane id=":J3_41_0" index="0" speed="10.72" length="11.72" width="3.50" shape="-43.50,58.40 -47.39,60.73 -54.50,61.75"/>
    </edge>
    <edge id=":J3_29" function="internal">
        <lane id=":J3_29_0" index="0" speed="6.62" length="9.27" width="3.50" shape="-54.50,51.25 -51.98,50.89 -50.19,49.81 -49.11,48.02 -48.75,45.50"/>
    </edge>
    <edge id=":J3_30" function="internal">
        <lane id=":J3_30_0" index="0" speed="7.50" length="12.23" width="3.50" shape="-54.50,51.25 -50.45,50.89 -47.56,49.81 -45.83,48.02 -45.25,45.50"/>
    </edge>
    <edge id=":J3_31" function="internal">
        <lane id=":J3_31_0" index="0" speed="8.32" length="15.35" width="3.50" shape="-54.50,51.25 -48.92,50.89 -44.94,49.81 -42.55,48.02 -41.75,45.50"/>
    </edge>
    <edge id=":J3_32" function="internal">
        <lane id=":J3_32_0" index="0" speed="40.00" length="29.00" width="3.50" shape="-54.50,54.75 -25.50,54.75"/>
    </edge>
    <edge id=":J3_33" function="internal">
        <lane id=":J3_33_0" index="0" speed="11.81" length="32.05" width="3.50" shape="-54.50,58.25 -44.33,59.27 -37.06,62.31 -32.70,67.39 -31.25,74.50"/>
    </edge>
    <edge id=":J3_34" function="internal">
        <lane id=":J3_34_0" index="0" speed="11.27" length="29.08" width="3.50" shape="-54.50,58.25 -45.86,59.27 -39.69,62.31 -35.98,67.39 -34.75,74.50"/>
    </edge>
    <edge id=":J3_35" function="internal">
        <lane id=":J3_35_0" index="0" speed="10.72" length="26.21" width="3.50" shape="-54.50,58.25 -47.39,59.27 -42.31,62.31 -39.27,67.39 -38.25,74.50"/>
    </edge>
    <edge id=":J35_0" function="internal">
        <lane id=":J35_0_0" index="0" speed="26.95" length="8.00" width="3.50" shape="94.00,68.75 86.00,68.75"/>
    </edge>
    <edge id=":J5_0" function="internal">
        <lane id=":J5_0_0" index="0" speed="13.89" length="43.00" width="3.50" shape="344.25,81.50 344.25,38.50"/>
        <lane id=":J5_0_1" index="1" speed="13.89" length="43.00" width="3.50" shape="347.75,81.50 347.75,38.50"/>
        <lane id=":J5_0_2" index="2" speed="13.89" length="43.00" width="3.50" shape="351.25,81.50 351.25,38.50"/>
        <lane id=":J5_0_3" index="3" speed="13.89" length="43.00" width="3.50" shape="354.75,81.50 354.75,38.50"/>
        <lane id=":J5_0_4" index="4" speed="13.89" length="43.00" width="3.50" shape="358.25,81.50 358.25,38.50"/>
    </edge>
    <edge id=":J5_5" function="internal">
        <lane id=":J5_5_0" index="0" speed="13.89" length="15.61" width="3.50" shape="358.25,81.50 359.70,66.73 360.00,66.02"/>
    </edge>
    <edge id=":J5_6" function="internal">
        <lane id=":J5_6_0" index="0" speed="13.66" length="14.02" width="3.50" shape="358.25,81.50 359.70,68.27 360.00,67.62"/>
    </edge>
    <edge id=":J5_7" function="internal">
        <lane id=":J5_7_0" index="0" speed="13.21" length="12.44" width="3.50" shape="358.25,81.50 359.70,69.80 360.00,69.23"/>
    </edge>
    <edge id=":J5_8" function="internal">
        <lane id=":J5_8_0" index="0" speed="12.74" length="10.85" width="3.50" shape="358.25,81.50 359.70,71.33 360.00,70.83"/>
    </edge>
    <edge id=":J5_24" function="internal">
        <lane id=":J5_24_0" index="0" speed="13.89" length="30.66" width="3.50" shape="360.00,66.02 364.06,56.19 371.33,49.86 381.50,47.75"/>
    </edge>
    <edge id=":J5_25" function="internal">
        <lane id=":J5_25_0" index="0" speed="13.66" length="29.26" width="3.50" shape="360.00,67.62 364.06,58.81 371.33,53.14 381.50,51.25"/>
    </edge>
    <edge id=":J5_26" function="internal">
        <lane id=":J5_26_0" index="0" speed="13.21" length="27.92" width="3.50" shape="360.00,69.23 364.06,61.44 371.33,56.42 381.50,54.75"/>
    </edge>
    <edge id=":J5_27" function="internal">
        <lane id=":J5_27_0" index="0" speed="12.74" length="26.64" width="3.50" shape="360.00,70.83 364.06,64.06 371.33,59.70 381.50,58.25"/>
    </edge>
    <edge id=":J5_9" function="internal">
        <lane id=":J5_9_0" index="0" speed="6.62" length="9.27" width="3.50" shape="381.50,75.75 378.98,76.11 377.19,77.19 376.11,78.98 375.75,81.50"/>
    </edge>
    <edge id=":J5_10" function="internal">
        <lane id=":J5_10_0" index="0" speed="8.22" length="14.92" width="3.50" shape="381.50,72.25 377.45,72.83 374.56,74.56 372.83,77.45 372.25,81.50"/>
    </edge>
    <edge id=":J5_11" function="internal">
        <lane id=":J5_11_0" index="0" speed="8.93" length="17.83" width="3.50" shape="381.50,72.25 375.92,72.83 371.94,74.56 369.55,77.45 368.75,81.50"/>
    </edge>
    <edge id=":J5_12" function="internal">
        <lane id=":J5_12_0" index="0" speed="13.89" length="51.64" width="3.50" shape="381.50,68.75 366.73,66.86 356.19,61.19 349.86,51.73 347.75,38.50"/>
    </edge>
    <edge id=":J5_13" function="internal">
        <lane id=":J5_13_0" index="0" speed="13.89" length="46.00" width="3.50" shape="381.50,65.25 368.27,63.58 358.81,58.56 353.14,50.20 351.25,38.50"/>
    </edge>
    <edge id=":J5_14" function="internal">
        <lane id=":J5_14_0" index="0" speed="13.21" length="40.36" width="3.50" shape="381.50,61.75 369.80,60.30 361.44,55.94 356.42,48.67 354.75,38.50"/>
    </edge>
    <edge id=":J5_15" function="internal">
        <lane id=":J5_15_0" index="0" speed="12.74" length="37.50" width="3.50" shape="381.50,61.75 371.33,60.30 364.06,55.94 359.70,48.67 358.25,38.50"/>
    </edge>
    <edge id=":J5_16" function="internal">
        <lane id=":J5_16_0" index="0" speed="6.62" length="9.27" width="3.50" shape="375.75,38.50 376.11,41.02 377.19,42.81 378.98,43.89 381.50,44.25"/>
    </edge>
    <edge id=":J5_17" function="internal">
        <lane id=":J5_17_0" index="0" speed="7.50" length="12.23" width="3.50" shape="375.75,38.50 376.11,42.55 377.19,45.44 378.98,47.17 381.50,47.75"/>
    </edge>
    <edge id=":J5_18" function="internal">
        <lane id=":J5_18_0" index="0" speed="8.32" length="15.35" width="3.50" shape="375.75,38.50 376.11,44.08 377.19,48.06 378.98,50.45 381.50,51.25"/>
    </edge>
    <edge id=":J5_19" function="internal">
        <lane id=":J5_19_0" index="0" speed="13.89" length="43.00" width="3.50" shape="375.75,38.50 375.75,81.50"/>
        <lane id=":J5_19_1" index="1" speed="13.89" length="43.00" width="3.50" shape="372.25,38.50 372.25,81.50"/>
        <lane id=":J5_19_2" index="2" speed="13.89" length="43.00" width="3.50" shape="368.75,38.50 368.75,81.50"/>
        <lane id=":J5_19_3" index="3" speed="13.89" length="43.00" width="3.50" shape="365.25,38.50 365.25,81.50"/>
        <lane id=":J5_19_4" index="4" speed="13.89" length="43.00" width="3.50" shape="361.75,38.50 361.75,81.50"/>
    </edge>

    <edge id="E3-35" from="J3" to="J35" priority="-1" length="100.00">
        <lane id="E3-35_0" index="0" speed="40.00" length="100.00" width="3.50" shape="-25.50,51.25 86.00,51.25"/>
        <lane id="E3-35_1" index="1" speed="40.00" length="100.00" width="3.50" shape="-25.50,54.75 86.00,54.75"/>
        <lane id="E3-35_2" index="2" speed="40.00" length="100.00" width="3.50" shape="-25.50,58.25 86.00,58.25"/>
    </edge>
    <edge id="E3-3l" from="J3" to="J3l" priority="-1" length="500.00">
        <lane id="E3-3l_0" index="0" speed="40.00" length="500.00" width="3.50" shape="-54.50,68.75 -300.00,68.75"/>
        <lane id="E3-3l_1" index="1" speed="40.00" length="500.00" width="3.50" shape="-54.50,65.25 -300.00,65.25"/>
        <lane id="E3-3l_2" index="2" speed="40.00" length="500.00" width="3.50" shape="-54.50,61.75 -300.00,61.75"/>
    </edge>
    <edge id="E3-3n" from="J3" to="J3n" priority="-1" length="500.00">
        <lane id="E3-3n_0" index="0" speed="40.00" length="500.00" width="3.50" shape="-31.25,74.50 -31.25,330.00"/>
        <lane id="E3-3n_1" index="1" speed="40.00" length="500.00" width="3.50" shape="-34.75,74.50 -34.75,330.00"/>
        <lane id="E3-3n_2" index="2" speed="40.00" length="500.00" width="3.50" shape="-38.25,74.50 -38.25,330.00"/>
    </edge>
    <edge id="E3-3s" from="J3" to="J3s" priority="-1" length="500.00">
        <lane id="E3-3s_0" index="0" speed="40.00" length="500.00" width="3.50" shape="-48.75,45.50 -48.75,-200.00"/>
        <lane id="E3-3s_1" index="1" speed="40.00" length="500.00" width="3.50" shape="-45.25,45.50 -45.25,-200.00"/>
        <lane id="E3-3s_2" index="2" speed="40.00" length="500.00" width="3.50" shape="-41.75,45.50 -41.75,-200.00"/>
    </edge>
    <edge id="E35-3" from="J35" to="J3" priority="-1" length="100.00">
        <lane id="E35-3_0" index="0" speed="40.00" length="100.00" width="3.50" shape="86.00,68.75 -25.50,68.75"/>
        <lane id="E35-3_1" index="1" speed="40.00" length="100.00" width="3.50" shape="86.00,65.25 -25.50,65.25"/>
        <lane id="E35-3_2" index="2" speed="40.00" length="100.00" width="3.50" shape="86.00,61.75 -25.50,61.75"/>
    </edge>
    <edge id="E35-5" from="J35" to="J5" priority="-1">
        <lane id="E35-5_0" index="0" speed="13.89" length="244.50" width="3.50" shape="94.00,44.25 338.50,44.25"/>
        <lane id="E35-5_1" index="1" speed="13.89" length="244.50" width="3.50" shape="94.00,47.75 338.50,47.75"/>
        <lane id="E35-5_2" index="2" speed="13.89" length="244.50" width="3.50" shape="94.00,51.25 338.50,51.25"/>
        <lane id="E35-5_3" index="3" speed="13.89" length="244.50" width="3.50" shape="94.00,54.75 338.50,54.75"/>
        <lane id="E35-5_4" index="4" speed="13.89" length="244.50" width="3.50" shape="94.00,58.25 338.50,58.25"/>
    </edge>
    <edge id="E3l-3" from="J3l" to="J3" priority="-1" length="500.00">
        <lane id="E3l-3_0" index="0" speed="40.00" length="500.00" width="3.50" shape="-300.00,51.25 -54.50,51.25"/>
        <lane id="E3l-3_1" index="1" speed="40.00" length="500.00" width="3.50" shape="-300.00,54.75 -54.50,54.75"/>
        <lane id="E3l-3_2" index="2" speed="40.00" length="500.00" width="3.50" shape="-300.00,58.25 -54.50,58.25"/>
    </edge>
    <edge id="E3n-3" from="J3n" to="J3" priority="-1" length="500.00">
        <lane id="E3n-3_0" index="0" speed="40.00" length="500.00" width="3.50" shape="-48.75,330.00 -48.75,74.50"/>
        <lane id="E3n-3_1" index="1" speed="40.00" length="500.00" width="3.50" shape="-45.25,330.00 -45.25,74.50"/>
        <lane id="E3n-3_2" index="2" speed="40.00" length="500.00" width="3.50" shape="-41.75,330.00 -41.75,74.50"/>
    </edge>
    <edge id="E3s-3" from="J3s" to="J3" priority="-1" length="500.00">
        <lane id="E3s-3_0" index="0" speed="40.00" length="500.00" width="3.50" shape="-31.25,-200.00 -31.25,45.50"/>
        <lane id="E3s-3_1" index="1" speed="40.00" length="500.00" width="3.50" shape="-34.75,-200.00 -34.75,45.50"/>
        <lane id="E3s-3_2" index="2" speed="40.00" length="500.00" width="3.50" shape="-38.25,-200.00 -38.25,45.50"/>
    </edge>
    <edge id="E5-35" from="J5" to="J35" priority="-1">
        <lane id="E5-35_0" index="0" speed="13.89" length="244.50" width="3.50" shape="338.50,75.75 94.00,75.75"/>
        <lane id="E5-35_1" index="1" speed="13.89" length="244.50" width="3.50" shape="338.50,72.25 94.00,72.25"/>
        <lane id="E5-35_2" index="2" speed="13.89" length="244.50" width="3.50" shape="338.50,68.75 94.00,68.75"/>
        <lane id="E5-35_3" index="3" speed="13.89" length="244.50" width="3.50" shape="338.50,65.25 94.00,65.25"/>
        <lane id="E5-35_4" index="4" speed="13.89" length="244.50" width="3.50" shape="338.50,61.75 94.00,61.75"/>
    </edge>
    <edge id="E5-5n" from="J5" to="J5n" priority="-1">
        <lane id="E5-5n_0" index="0" speed="13.89" length="248.50" width="3.50" shape="375.75,81.50 375.75,330.00"/>
        <lane id="E5-5n_1" index="1" speed="13.89" length="248.50" width="3.50" shape="372.25,81.50 372.25,330.00"/>
        <lane id="E5-5n_2" index="2" speed="13.89" length="248.50" width="3.50" shape="368.75,81.50 368.75,330.00"/>
        <lane id="E5-5n_3" index="3" speed="13.89" length="248.50" width="3.50" shape="365.25,81.50 365.25,330.00"/>
        <lane id="E5-5n_4" index="4" speed="13.89" length="248.50" width="3.50" shape="361.75,81.50 361.75,330.00"/>
    </edge>
    <edge id="E5-5r" from="J5" to="J5r" priority="-1">
        <lane id="E5-5r_0" index="0" speed="13.89" length="178.50" width="3.50" shape="381.50,44.25 560.00,44.25"/>
        <lane id="E5-5r_1" index="1" speed="13.89" length="178.50" width="3.50" shape="381.50,47.75 560.00,47.75"/>
        <lane id="E5-5r_2" index="2" speed="13.89" length="178.50" width="3.50" shape="381.50,51.25 560.00,51.25"/>
        <lane id="E5-5r_3" index="3" speed="13.89" length="178.50" width="3.50" shape="381.50,54.75 560.00,54.75"/>
        <lane id="E5-5r_4" index="4" speed="13.89" length="178.50" width="3.50" shape="381.50,58.25 560.00,58.25"/>
    </edge>
    <edge id="E5-5s" from="J5" to="J5s" priority="-1">
        <lane id="E5-5s_0" index="0" speed="13.89" length="238.50" width="3.50" shape="344.25,38.50 344.25,-200.00"/>
        <lane id="E5-5s_1" index="1" speed="13.89" length="238.50" width="3.50" shape="347.75,38.50 347.75,-200.00"/>
        <lane id="E5-5s_2" index="2" speed="13.89" length="238.50" width="3.50" shape="351.25,38.50 351.25,-200.00"/>
        <lane id="E5-5s_3" index="3" speed="13.89" length="238.50" width="3.50" shape="354.75,38.50 354.75,-200.00"/>
        <lane id="E5-5s_4" index="4" speed="13.89" length="238.50" width="3.50" shape="358.25,38.50 358.25,-200.00"/>
    </edge>
    <edge id="E5n-5" from="J5n" to="J5" priority="-1">
        <lane id="E5n-5_0" index="0" speed="13.89" length="248.50" width="3.50" shape="344.25,330.00 344.25,81.50"/>
        <lane id="E5n-5_1" index="1" speed="13.89" length="248.50" width="3.50" shape="347.75,330.00 347.75,81.50"/>
        <lane id="E5n-5_2" index="2" speed="13.89" length="248.50" width="3.50" shape="351.25,330.00 351.25,81.50"/>
        <lane id="E5n-5_3" index="3" speed="13.89" length="248.50" width="3.50" shape="354.75,330.00 354.75,81.50"/>
        <lane id="E5n-5_4" index="4" speed="13.89" length="248.50" width="3.50" shape="358.25,330.00 358.25,81.50"/>
    </edge>
    <edge id="E5r-5" from="J5r" to="J5" priority="-1">
        <lane id="E5r-5_0" index="0" speed="13.89" length="178.50" width="3.50" shape="560.00,75.75 381.50,75.75"/>
        <lane id="E5r-5_1" index="1" speed="13.89" length="178.50" width="3.50" shape="560.00,72.25 381.50,72.25"/>
        <lane id="E5r-5_2" index="2" speed="13.89" length="178.50" width="3.50" shape="560.00,68.75 381.50,68.75"/>
        <lane id="E5r-5_3" index="3" speed="13.89" length="178.50" width="3.50" shape="560.00,65.25 381.50,65.25"/>
        <lane id="E5r-5_4" index="4" speed="13.89" length="178.50" width="3.50" shape="560.00,61.75 381.50,61.75"/>
    </edge>
    <edge id="E5s-5" from="J5s" to="J5" priority="-1">
        <lane id="E5s-5_0" index="0" speed="13.89" length="238.50" width="3.50" shape="375.75,-200.00 375.75,38.50"/>
        <lane id="E5s-5_1" index="1" speed="13.89" length="238.50" width="3.50" shape="372.25,-200.00 372.25,38.50"/>
        <lane id="E5s-5_2" index="2" speed="13.89" length="238.50" width="3.50" shape="368.75,-200.00 368.75,38.50"/>
        <lane id="E5s-5_3" index="3" speed="13.89" length="238.50" width="3.50" shape="365.25,-200.00 365.25,38.50"/>
        <lane id="E5s-5_4" index="4" speed="13.89" length="238.50" width="3.50" shape="361.75,-200.00 361.75,38.50"/>
    </edge>

    <junction id="J3" type="priority" x="-40.00" y="60.00" incLanes="E3n-3_0 E3n-3_1 E3n-3_2 E35-3_0 E35-3_1 E35-3_2 E3s-3_0 E3s-3_1 E3s-3_2 E3l-3_0 E3l-3_1 E3l-3_2" intLanes=":J3_0_0 :J3_1_0 :J3_2_0 :J3_3_0 :J3_36_0 :J3_37_0 :J3_38_0 :J3_7_0 :J3_8_0 :J3_9_0 :J3_10_0 :J3_10_1 :J3_10_2 :J3_10_3 :J3_10_4 :J3_10_5 :J3_16_0 :J3_17_0 :J3_18_0 :J3_19_0 :J3_20_0 :J3_21_0 :J3_22_0 :J3_23_0 :J3_23_1 :J3_23_2 :J3_39_0 :J3_40_0 :J3_41_0 :J3_29_0 :J3_30_0 :J3_31_0 :J3_32_0 :J3_33_0 :J3_34_0 :J3_35_0" shape="-50.50,74.50 -29.50,74.50 -29.06,72.28 -28.50,71.50 -27.72,70.94 -26.72,70.61 -25.50,70.50 -25.50,49.50 -27.72,49.06 -28.50,48.50 -29.06,47.72 -29.39,46.72 -29.50,45.50 -50.50,45.50 -50.94,47.72 -51.50,48.50 -52.28,49.06 -53.28,49.39 -54.50,49.50 -54.50,70.50 -52.28,70.94 -51.50,71.50 -50.94,72.28 -50.61,73.28">
        <request index="0"  response="000000000000000000000000000000000000" foes="000000011100000000001111110000000000" cont="0"/>
        <request index="1"  response="000000000000000000000000000000000000" foes="000000011100000000001111110000000000" cont="0"/>
        <request index="2"  response="000000000000000000000000000000000000" foes="000000011100000000001111110000000000" cont="0"/>
        <request index="3"  response="000000000000000000000000000000000000" foes="111111111100000001111111110000000000" cont="0"/>
        <request index="4"  response="000000000011111100000000000000000000" foes="111100000011111111111111110000000000" cont="1"/>
        <request index="5"  response="000000000011111100000000000000000000" foes="111100000011111111111111110000000000" cont="1"/>
        <request index="6"  response="000000000011111100000000000000000000" foes="111100000011111111111111110000000000" cont="1"/>
        <request index="7"  response="000000000011100000000000000000000000" foes="111000000011100000000000000000000000" cont="0"/>
        <request index="8"  response="000000000011100000000000000000000000" foes="111000000011100000000000000000000000" cont="0"/>
        <request index="9"  response="000000000011100000000000000000000000" foes="111000000011100000000000000000000000" cont="0"/>
        <request index="10" response="000000011111100000000010000001111111" foes="111000011111100000000010000001111111" cont="0"/>
        <request index="11" response="000000011111100000000100000001111111" foes="111000011111100000000100000001111111" cont="0"/>
        <request index="12" response="000000011111100000001000000001111111" foes="111000011111100000001000000001111111" cont="0"/>
        <request index="13" response="000000011111100000000000000001111111" foes="111000011111100000000000010001111111" cont="0"/>
        <request index="14" response="000000011111100000000000000001111111" foes="111000011111100000000000100001111111" cont="0"/>
        <request index="15" response="000000011111100000000000000001111111" foes="111000011111100000000001000001111111" cont="0"/>
        <request index="16" response="000111111111100000000000000001111000" foes="000111111111100000000000000001111000" cont="0"/>
        <request index="17" response="000111111111100000000000000001111000" foes="000111111111100000000000000001111000" cont="0"/>
        <request index="18" response="000111111111100000000000000001111000" foes="000111111111100000000000000001111000" cont="0"/>
        <request index="19" response="000100000000011100000000000001110000" foes="000100000000011100000000000001110000" cont="0"/>
        <request index="20" response="000000000000000000000000000000000000" foes="000100000000000010000000000001110000" cont="0"/>
        <request index="21" response="000000000000000000000000000000000000" foes="000100000000000010000000000001110000" cont="0"/>
        <request index="22" response="000000000000000000000000000000000000" foes="000100000000000010000000000001110000" cont="0"/>
        <request index="23" response="000000000000000000000000000000000000" foes="111100000000000001111111111111110000" cont="0"/>
        <request index="24" response="000000000000000000000000000000000000" foes="111100000000000001111111111111110000" cont="0"/>
        <request index="25" response="000000000000000000000000000000000000" foes="111100000000000001111111111111110000" cont="0"/>
        <request index="26" response="000000000000000000000000000000001111" foes="111100000000000001111111110000001111" cont="1"/>
        <request index="27" response="000000000000000000000000000000001111" foes="111100000000000001111111110000001111" cont="1"/>
        <request index="28" response="000000000000000000000000000000001111" foes="111100000000000001111111110000001111" cont="1"/>
        <request index="29" response="000000000000000000000000000000001000" foes="000000000000000001110000000000001000" cont="0"/>
        <request index="30" response="000000000000000000000000000000001000" foes="000000000000000001110000000000001000" cont="0"/>
        <request index="31" response="000000000000000000000000000000001000" foes="000000000000000001110000000000001000" cont="0"/>
        <request index="32" response="000000011111111100000000000001111000" foes="000000011111111111110000000001111000" cont="0"/>
        <request index="33" response="000000011111100000001111111111111000" foes="000000011111100000001111111111111000" cont="0"/>
        <request index="34" response="000000011111100000001111111111111000" foes="000000011111100000001111111111111000" cont="0"/>
        <request index="35" response="000000011111100000001111111111111000" foes="000000011111100000001111111111111000" cont="0"/>
    </junction>
    <junction id="J35" type="priority" x="90.00" y="60.00" incLanes="E5-35_0 E5-35_1 E5-35_2 E5-35_3 E5-35_4 E3-35_0 E3-35_1 E3-35_2" intLanes=":J35_0_0" shape="94.00,77.50 94.00,42.50 91.93,43.02 90.74,44.31 89.26,47.69 88.07,48.98 86.00,49.50 86.00,70.50 88.07,71.02 89.26,72.31 90.74,75.69 91.93,76.98">
        <request index="0" response="0" foes="0" cont="0"/>
    </junction>
    <junction id="J3l" type="dead_end" x="-300.00" y="60.00" incLanes="E3-3l_0 E3-3l_1 E3-3l_2" intLanes="" shape="-300.00,60.00 -300.00,70.50 -300.00,60.00"/>
    <junction id="J3n" type="dead_end" x="-40.00" y="330.00" incLanes="E3-3n_0 E3-3n_1 E3-3n_2" intLanes="" shape="-40.00,330.00 -29.50,330.00 -40.00,330.00"/>
    <junction id="J3s" type="dead_end" x="-40.00" y="-200.00" incLanes="E3-3s_0 E3-3s_1 E3-3s_2" intLanes="" shape="-40.00,-200.00 -50.50,-200.00 -40.00,-200.00"/>