<?xml version="1.0" encoding="UTF-8"?>

<!-- generated on 2022-09-28 16:27:37 by Eclipse SUMO netedit Version 1.13.0
<configuration xmlns:xsi="http://www.w3.org/2001/XMLSchema-instance" xsi:noNamespaceSchemaLocation="http://sumo.dlr.de/xsd/netconvertConfiguration.xsd">

    <input>
        <sumo-net-file value="scenarios/benchmark/n_sumo_actors/200_actors/map.net.xml"/>
    </input>

    <output>
        <output-file value="scenarios/benchmark/n_sumo_actors/200_actors/map.net.xml"/>
    </output>

    <processing>
        <geometry.min-radius.fix.railways value="false"/>
        <geometry.max-grade.fix value="false"/>
        <offset.disable-normalization value="true"/>
        <lefthand value="false"/>
    </processing>

    <junctions>
        <no-turnarounds value="true"/>
        <junctions.corner-detail value="5"/>
        <junctions.limit-turn-speed value="5.5"/>
        <rectangular-lane-cut value="false"/>
    </junctions>

    <pedestrian>
        <walkingareas value="false"/>
    </pedestrian>

    <report>
        <aggregate-warnings value="5"/>
    </report>

</configuration>
-->

<net version="1.9" junctionCornerDetail="5" limitTurnSpeed="5.50" xmlns:xsi="http://www.w3.org/2001/XMLSchema-instance" xsi:noNamespaceSchemaLocation="http://sumo.dlr.de/xsd/net_file.xsd">

    <location netOffset="0.00,0.00" convBoundary="-637.31,16.60,646.88,27.36" origBoundary="-10000000000.00,-10000000000.00,10000000000.00,10000000000.00" projParameter="!"/>

    <edge id=":cluster_J2_J8_0" function="internal">
        <lane id=":cluster_J2_J8_0_0" index="0" speed="13.89" length="9.24" width="5.00" shape="155.74,5.49 158.49,5.34 160.36,5.03 162.23,4.72 164.98,4.58"/>
        <lane id=":cluster_J2_J8_0_1" index="1" speed="13.89" length="9.24" width="3.66" shape="155.74,9.15 164.98,8.91"/>
        <lane id=":cluster_J2_J8_0_2" index="2" speed="13.89" length="9.24" width="3.66" shape="155.75,12.81 164.99,12.57"/>
        <lane id=":cluster_J2_J8_0_3" index="3" speed="13.89" length="9.24" width="3.66" shape="155.76,16.47 164.99,16.23"/>
        <lane id=":cluster_J2_J8_0_4" index="4" speed="13.89" length="9.24" width="3.66" shape="155.77,20.13 164.99,19.89"/>
        <lane id=":cluster_J2_J8_0_5" index="5" speed="13.89" length="9.24" width="3.66" shape="155.78,23.79 164.99,23.55"/>
    </edge>

    <edge id="gneE01" from="gneJ00" to="cluster_J2_J8" priority="-1" shape="-637.31,27.36 155.78,25.62">
        <lane id="gneE01_0" index="0" speed="13.89" length="793.09" width="3.66" shape="-637.35,7.23 155.74,5.49"/>
        <lane id="gneE01_1" index="1" speed="13.89" length="793.09" width="3.66" shape="-637.35,10.89 155.74,9.15"/>
        <lane id="gneE01_2" index="2" speed="13.89" length="793.09" width="3.66" shape="-637.34,14.55 155.75,12.81"/>
        <lane id="gneE01_3" index="3" speed="13.89" length="793.09" width="3.66" shape="-637.33,18.21 155.76,16.47"/>
        <lane id="gneE01_4" index="4" speed="13.89" length="793.09" width="3.66" shape="-637.32,21.87 155.77,20.13"/>
        <lane id="gneE01_5" index="5" speed="13.89" length="793.09" width="3.66" shape="-637.31,25.53 155.78,23.79"/>
    </edge>
    <edge id="gneE01.132" from="cluster_J2_J8" to="gneJ10" priority="-1" shape="164.99,25.38 646.88,25.23">
        <lane id="gneE01.132_0" index="0" speed="13.89" length="481.89" width="5.00" shape="164.98,4.58 646.87,4.43"/>
        <lane id="gneE01.132_1" index="1" speed="13.89" length="481.89" width="3.66" shape="164.98,8.91 646.87,8.76"/>
        <lane id="gneE01.132_2" index="2" speed="13.89" length="481.89" width="3.66" shape="164.99,12.57 646.88,12.42"/>
        <lane id="gneE01.132_3" index="3" speed="13.89" length="481.89" width="3.66" shape="164.99,16.23 646.88,16.08"/>
        <lane id="gneE01.132_4" index="4" speed="13.89" length="481.89" width="3.66" shape="164.99,19.89 646.88,19.74"/>
        <lane id="gneE01.132_5" index="5" speed="13.89" length="481.89" width="3.66" shape="164.99,23.55 646.88,23.40"/>
    </edge>

    <junction id="cluster_J2_J8" type="priority" x="159.46" y="16.60" incLanes="gneE01_0 gneE01_1 gneE01_2 gneE01_3 gneE01_4 gneE01_5" intLanes=":cluster_J2_J8_0_0 :cluster_J2_J8_0_1 :cluster_J2_J8_0_2 :cluster_J2_J8_0_3 :cluster_J2_J8_0_4 :cluster_J2_J8_0_5" shape="164.99,25.38 164.98,2.08 161.54,2.49 159.17,3.25 157.72,3.54 155.73,3.66 155.78,25.62">
        <request index="0" response="000000" foes="000000" cont="0"/>
        <request index="1" response="000000" foes="000000" cont="0"/>
        <request index="2" response="000000" foes="000000" cont="0"/>
        <request index="3" response="000000" foes="000000" cont="0"/>
        <request index="4" response="000000" foes="000000" cont="0"/>
        <request index="5" response="000000" foes="000000" cont="0"/>
    </junction>
    <junction id="gneJ00" type="dead_end" x="-637.31" y="27.36" incLanes="" intLanes="" shape="-637.31,27.36 -637.36,5.40"/>
    <junction id="gneJ10" type="dead_end" x="646.88" y="25.23" incLanes="gneE01.132_0 gneE01.132_1 gneE01.132_2 gneE01.132_3 gneE01.132_4 gneE01.132_5" intLanes="" shape="646.87,1.93 646.88,25.23"/>

    <connection from="gneE01" to="gneE01.132" fromLane="0" toLane="0" via=":cluster_J2_J8_0_0" dir="s" state="M"/>
    <connection from="gneE01" to="gneE01.132" fromLane="1" toLane="1" via=":cluster_J2_J8_0_1" dir="s" state="M"/>
    <connection from="gneE01" to="gneE01.132" fromLane="2" toLane="2" via=":cluster_J2_J8_0_2" dir="s" state="M"/>
    <connection from="gneE01" to="gneE01.132" fromLane="3" toLane="3" via=":cluster_J2_J8_0_3" dir="s" state="M"/>
    <connection from="gneE01" to="gneE01.132" fromLane="4" toLane="4" via=":cluster_J2_J8_0_4" dir="s" state="M"/>
    <connection from="gneE01" to="gneE01.132" fromLane="5" toLane="5" via=":cluster_J2_J8_0_5" dir="s" state="M"/>

    <connection from=":cluster_J2_J8_0" to="gneE01.132" fromLane="0" toLane="0" dir="s" state="M"/>
    <connection from=":cluster_J2_J8_0" to="gneE01.132" fromLane="1" toLane="1" dir="s" state="M"/>
    <connection from=":cluster_J2_J8_0" to="gneE01.132" fromLane="2" toLane="2" dir="s" state="M"/>
    <connection from=":cluster_J2_J8_0" to="gneE01.132" fromLane="3" toLane="3" dir="s" state="M"/>
    <connection from=":cluster_J2_J8_0" to="gneE01.132" fromLane="4" toLane="4" dir="s" state="M"/>
    <connection from=":cluster_J2_J8_0" to="gneE01.132" fromLane="5" toLane="5" dir="s" state="M"/>

</net>
