<?xml version="1.0" encoding="UTF-8"?>

<!-- generated on Wed 30 Sep 13:57:51 2020 by Eclipse SUMO netedit Version 1.5.0
<configuration xmlns:xsi="http://www.w3.org/2001/XMLSchema-instance" xsi:noNamespaceSchemaLocation="http://sumo.dlr.de/xsd/netconvertConfiguration.xsd">

    <input>
        <sumo-net-file value="/Users/kimia_hszd/dev/SMARTS/research/edmonton/intersections/scenarios/pool/6lane_c/100kmh/map.net.xml"/>
    </input>

    <output>
        <output-file value="/Users/kimia_hszd/dev/SMARTS/research/edmonton/intersections/scenarios/pool/6lane_c/100kmh/map.net.xml"/>
    </output>

    <processing>
        <geometry.min-radius.fix.railways value="false"/>
        <geometry.max-grade.fix value="false"/>
        <offset.disable-normalization value="true"/>
        <lefthand value="false"/>
    </processing>

    <junctions>
        <no-turnarounds value="true"/>
        <junctions.corner-detail value="5"/>
        <junctions.limit-turn-speed value="-1"/>
        <rectangular-lane-cut value="false"/>
    </junctions>

    <pedestrian>
        <walkingareas value="false"/>
    </pedestrian>

    <report>
        <aggregate-warnings value="5"/>
    </report>

</configuration>
-->

<net version="1.3" junctionCornerDetail="5" xmlns:xsi="http://www.w3.org/2001/XMLSchema-instance" xsi:noNamespaceSchemaLocation="http://sumo.dlr.de/xsd/net_file.xsd">

    <location netOffset="-630882.85,-4856133.12" convBoundary="-35.79,-237.94,360.88,87.45" origBoundary="-79.371708,43.846679,-79.369237,43.847436" projParameter="+proj=utm +zone=17 +ellps=WGS84 +datum=WGS84 +units=m +no_defs"/>

    <type id="highway.bridleway" priority="1" numLanes="1" speed="2.78" allow="pedestrian" oneway="1" width="2.00"/>
    <type id="highway.bus_guideway" priority="1" numLanes="1" speed="27.78" allow="bus" oneway="1"/>
    <type id="highway.cycleway" priority="1" numLanes="1" speed="8.33" allow="bicycle" oneway="0" width="1.00"/>
    <type id="highway.footway" priority="1" numLanes="1" speed="2.78" allow="pedestrian" oneway="1" width="2.00"/>
    <type id="highway.ford" priority="1" numLanes="1" speed="2.78" allow="army" oneway="0"/>
    <type id="highway.living_street" priority="2" numLanes="1" speed="2.78" disallow="tram rail_urban rail rail_electric ship" oneway="0"/>
    <type id="highway.motorway" priority="14" numLanes="2" speed="39.44" allow="private emergency authority army vip passenger hov taxi bus coach delivery truck trailer motorcycle evehicle custom1 custom2" oneway="1"/>
    <type id="highway.motorway_link" priority="9" numLanes="1" speed="22.22" allow="private emergency authority army vip passenger hov taxi bus coach delivery truck trailer motorcycle evehicle custom1 custom2" oneway="1"/>
    <type id="highway.path" priority="1" numLanes="1" speed="2.78" allow="pedestrian bicycle" oneway="1" width="2.00"/>
    <type id="highway.pedestrian" priority="1" numLanes="1" speed="2.78" allow="pedestrian" oneway="1" width="2.00"/>
    <type id="highway.primary" priority="12" numLanes="2" speed="27.78" disallow="tram rail_urban rail rail_electric ship" oneway="0"/>
    <type id="highway.primary_link" priority="7" numLanes="1" speed="22.22" disallow="tram rail_urban rail rail_electric ship" oneway="0"/>
    <type id="highway.raceway" priority="15" numLanes="2" speed="83.33" allow="vip" oneway="0"/>
    <type id="highway.residential" priority="3" numLanes="1" speed="13.89" disallow="tram rail_urban rail rail_electric ship" oneway="0"/>
    <type id="highway.secondary" priority="11" numLanes="2" speed="27.78" disallow="tram rail_urban rail rail_electric ship" oneway="0"/>
    <type id="highway.secondary_link" priority="6" numLanes="1" speed="22.22" disallow="tram rail_urban rail rail_electric ship" oneway="0"/>
    <type id="highway.service" priority="1" numLanes="1" speed="5.56" allow="pedestrian delivery bicycle" oneway="0"/>
    <type id="highway.stairs" priority="1" numLanes="1" speed="1.39" allow="pedestrian" oneway="1" width="2.00"/>
    <type id="highway.step" priority="1" numLanes="1" speed="1.39" allow="pedestrian" oneway="1" width="2.00"/>
    <type id="highway.steps" priority="1" numLanes="1" speed="1.39" allow="pedestrian" oneway="1" width="2.00"/>
    <type id="highway.tertiary" priority="10" numLanes="1" speed="22.22" disallow="tram rail_urban rail rail_electric ship" oneway="0"/>
    <type id="highway.tertiary_link" priority="5" numLanes="1" speed="22.22" disallow="tram rail_urban rail rail_electric ship" oneway="0"/>
    <type id="highway.track" priority="1" numLanes="1" speed="5.56" disallow="tram rail_urban rail rail_electric ship" oneway="0"/>
    <type id="highway.trunk" priority="13" numLanes="2" speed="27.78" disallow="pedestrian bicycle tram rail_urban rail rail_electric ship" oneway="0"/>
    <type id="highway.trunk_link" priority="8" numLanes="1" speed="22.22" disallow="pedestrian bicycle tram rail_urban rail rail_electric ship" oneway="0"/>
    <type id="highway.unclassified" priority="4" numLanes="1" speed="13.89" disallow="tram rail_urban rail rail_electric ship" oneway="0"/>
    <type id="highway.unsurfaced" priority="1" numLanes="1" speed="8.33" disallow="tram rail_urban rail rail_electric ship" oneway="0"/>
    <type id="railway.light_rail" priority="19" numLanes="1" speed="27.78" allow="rail_urban" oneway="1"/>
    <type id="railway.preserved" priority="16" numLanes="1" speed="27.78" allow="rail" oneway="1"/>
    <type id="railway.rail" priority="20" numLanes="1" speed="83.33" allow="rail rail_electric" oneway="1"/>
    <type id="railway.subway" priority="18" numLanes="1" speed="27.78" allow="rail_urban" oneway="1"/>
    <type id="railway.tram" priority="17" numLanes="1" speed="13.89" allow="tram" oneway="1"/>

    <edge id=":gneJ23_0" function="internal">
        <lane id=":gneJ23_0_0" index="0" speed="20.84" length="9.03" shape="145.17,-230.74 144.82,-233.19 143.77,-234.94 142.02,-235.99 139.57,-236.34"/>
    </edge>
    <edge id=":gneJ25_0" function="internal">
        <lane id=":gneJ25_0_0" index="0" speed="13.89" length="2.58" shape="-32.59,-236.29 -33.29,-236.19 -33.79,-235.89 -34.09,-235.39 -34.19,-234.69"/>
    </edge>
    <edge id=":junction-intersection_0" function="internal">
        <lane id=":junction-intersection_0_0" index="0" speed="20.84" length="15.48" shape="145.20,-42.40 144.60,-46.60 142.80,-49.60 139.80,-51.40 135.60,-52.00"/>
    </edge>
    <edge id=":junction-intersection_1" function="internal">
        <lane id=":junction-intersection_1_0" index="0" speed="27.78" length="35.20" shape="145.20,-42.40 145.20,-77.60"/>
        <lane id=":junction-intersection_1_1" index="1" speed="27.78" length="35.20" shape="148.40,-42.40 148.40,-77.60"/>
    </edge>
    <edge id=":junction-intersection_3" function="internal">
        <lane id=":junction-intersection_3_0" index="0" speed="20.84" length="6.72" shape="148.40,-42.40 149.19,-49.07"/>
    </edge>
    <edge id=":junction-intersection_18" function="internal">
        <lane id=":junction-intersection_18_0" index="0" speed="20.84" length="21.71" shape="149.19,-49.07 149.40,-50.80 152.40,-56.80 157.40,-60.40 164.40,-61.60"/>
    </edge>
    <edge id=":junction-intersection_4" function="internal">
        <lane id=":junction-intersection_4_0" index="0" speed="20.84" length="15.48" shape="164.40,-52.00 160.20,-51.40 157.20,-49.60 155.40,-46.60 154.80,-42.40"/>
    </edge>
    <edge id=":junction-intersection_5" function="internal">
        <lane id=":junction-intersection_5_0" index="0" speed="13.89" length="28.80" shape="164.40,-52.00 135.60,-52.00"/>
        <lane id=":junction-intersection_5_1" index="1" speed="13.89" length="28.80" shape="164.40,-55.20 135.60,-55.20"/>
        <lane id=":junction-intersection_5_2" index="2" speed="13.89" length="28.80" shape="164.40,-58.40 135.60,-58.40"/>
    </edge>
    <edge id=":junction-intersection_8" function="internal">
        <lane id=":junction-intersection_8_0" index="0" speed="20.84" length="4.67" shape="164.40,-58.40 159.80,-59.19"/>
    </edge>
    <edge id=":junction-intersection_19" function="internal">
        <lane id=":junction-intersection_19_0" index="0" speed="20.84" length="23.77" shape="159.80,-59.19 157.40,-59.60 152.40,-63.20 149.40,-69.20 148.40,-77.60"/>
    </edge>
    <edge id=":junction-intersection_9" function="internal">
        <lane id=":junction-intersection_9_0" index="0" speed="20.84" length="15.49" shape="154.80,-77.60 155.40,-73.40 157.20,-70.40 160.20,-68.60 164.40,-68.00"/>
    </edge>
    <edge id=":junction-intersection_10" function="internal">
        <lane id=":junction-intersection_10_0" index="0" speed="27.78" length="35.20" shape="154.80,-77.60 154.80,-42.40"/>
        <lane id=":junction-intersection_10_1" index="1" speed="27.78" length="35.20" shape="151.60,-77.60 151.60,-42.40"/>
    </edge>
    <edge id=":junction-intersection_12" function="internal">
        <lane id=":junction-intersection_12_0" index="0" speed="20.84" length="6.72" shape="151.60,-77.60 150.80,-70.93"/>
    </edge>
    <edge id=":junction-intersection_20" function="internal">
        <lane id=":junction-intersection_20_0" index="0" speed="20.84" length="21.71" shape="150.80,-70.93 150.60,-69.20 147.60,-63.20 142.60,-59.60 135.60,-58.40"/>
    </edge>
    <edge id=":junction-intersection_13" function="internal">
        <lane id=":junction-intersection_13_0" index="0" speed="20.84" length="15.48" shape="135.60,-68.00 139.80,-68.60 142.80,-70.40 144.60,-73.40 145.20,-77.60"/>
    </edge>
    <edge id=":junction-intersection_14" function="internal">
        <lane id=":junction-intersection_14_0" index="0" speed="13.89" length="28.80" shape="135.60,-68.00 164.40,-68.00"/>
        <lane id=":junction-intersection_14_1" index="1" speed="13.89" length="28.80" shape="135.60,-64.80 164.40,-64.80"/>
        <lane id=":junction-intersection_14_2" index="2" speed="13.89" length="28.80" shape="135.60,-61.60 164.40,-61.60"/>
    </edge>
    <edge id=":junction-intersection_17" function="internal">
        <lane id=":junction-intersection_17_0" index="0" speed="20.84" length="4.67" shape="135.60,-61.60 140.20,-60.81"/>
    </edge>
    <edge id=":junction-intersection_21" function="internal">
        <lane id=":junction-intersection_21_0" index="0" speed="20.84" length="23.77" shape="140.20,-60.81 142.60,-60.40 147.60,-56.80 150.60,-50.80 151.60,-42.40"/>
    </edge>

    <edge id="edge-dead-end" from="gneJ25" to="gneJ26" priority="-1">
        <lane id="edge-dead-end_0" index="0" speed="13.89" length="44.99" shape="-34.19,-234.69 -34.19,-189.70"/>
    </edge>
    <edge id="edge-east-EW" from="gneJ11" to="junction-intersection" priority="1">
        <lane id="edge-east-EW_0" index="0" speed="13.89" length="196.48" shape="360.88,-51.98 164.40,-52.00"/>
        <lane id="edge-east-EW_1" index="1" speed="13.89" length="196.48" shape="360.88,-55.18 164.40,-55.20"/>
        <lane id="edge-east-EW_2" index="2" speed="13.89" length="196.48" shape="360.88,-58.38 164.40,-58.40"/>
    </edge>
    <edge id="edge-east-WE" from="junction-intersection" to="gneJ11" priority="1">
        <lane id="edge-east-WE_0" index="0" speed="13.89" length="196.48" shape="164.40,-68.00 360.88,-67.98"/>
        <lane id="edge-east-WE_1" index="1" speed="13.89" length="196.48" shape="164.40,-64.80 360.88,-64.78"/>
        <lane id="edge-east-WE_2" index="2" speed="13.89" length="196.48" shape="164.40,-61.60 360.88,-61.58"/>
    </edge>
    <edge id="edge-north-NS" from="gneJ17" to="junction-intersection" priority="1">
        <lane id="edge-north-NS_0" index="0" speed="27.78" length="129.85" shape="145.19,87.45 145.20,-42.40"/>
        <lane id="edge-north-NS_1" index="1" speed="27.78" length="129.85" shape="148.39,87.45 148.40,-42.40"/>
    </edge>
    <edge id="edge-north-SN" from="junction-intersection" to="gneJ17" priority="1">
        <lane id="edge-north-SN_0" index="0" speed="27.78" length="129.85" shape="154.80,-42.40 154.79,87.45"/>
        <lane id="edge-north-SN_1" index="1" speed="27.78" length="129.85" shape="151.60,-42.40 151.59,87.45"/>
    </edge>
    <edge id="edge-south-NS" from="junction-intersection" to="gneJ23" priority="1">
        <lane id="edge-south-NS_0" index="0" speed="27.78" length="153.14" shape="145.20,-77.60 145.17,-230.74"/>
        <lane id="edge-south-NS_1" index="1" speed="27.78" length="153.14" shape="148.40,-77.60 148.37,-230.74"/>
    </edge>
    <edge id="edge-south-SN" from="gneJ23" to="junction-intersection" priority="1">
        <lane id="edge-south-SN_0" index="0" speed="27.78" length="153.14" shape="154.77,-230.74 154.80,-77.60"/>
        <lane id="edge-south-SN_1" index="1" speed="27.78" length="153.14" shape="151.57,-230.74 151.60,-77.60"/>
    </edge>
    <edge id="edge-south-side" from="gneJ23" to="gneJ25" priority="-1">
        <lane id="edge-south-side_0" index="0" speed="13.89" length="172.16" shape="139.57,-236.34 -32.59,-236.29"/>
    </edge>
    <edge id="edge-west-EW" from="junction-intersection" to="gneJ12" priority="1">
        <lane id="edge-west-EW_0" index="0" speed="13.89" length="169.07" shape="135.60,-52.00 -33.47,-51.97"/>
        <lane id="edge-west-EW_1" index="1" speed="13.89" length="169.07" shape="135.60,-55.20 -33.47,-55.17"/>
        <lane id="edge-west-EW_2" index="2" speed="13.89" length="169.07" shape="135.60,-58.40 -33.47,-58.37"/>
    </edge>
    <edge id="edge-west-WE" from="gneJ12" to="junction-intersection" priority="1">
        <lane id="edge-west-WE_0" index="0" speed="13.89" length="169.07" shape="-33.47,-67.97 135.60,-68.00"/>
        <lane id="edge-west-WE_1" index="1" speed="13.89" length="169.07" shape="-33.47,-64.77 135.60,-64.80"/>
        <lane id="edge-west-WE_2" index="2" speed="13.89" length="169.07" shape="-33.47,-61.57 135.60,-61.60"/>
    </edge>

    <junction id="gneJ11" type="dead_end" x="360.88" y="-59.98" incLanes="edge-east-WE_0 edge-east-WE_1 edge-east-WE_2" intLanes="" shape="360.88,-59.98 360.88,-69.58 360.88,-59.98"/>
    <junction id="gneJ12" type="dead_end" x="-33.47" y="-59.97" incLanes="edge-west-EW_0 edge-west-EW_1 edge-west-EW_2" intLanes="" shape="-33.47,-59.97 -33.47,-50.37 -33.47,-59.97"/>
    <junction id="gneJ17" type="dead_end" x="149.99" y="87.45" incLanes="edge-north-SN_0 edge-north-SN_1" intLanes="" shape="149.99,87.45 156.39,87.45 149.99,87.45"/>
    <junction id="gneJ23" type="priority" x="149.97" y="-237.94" incLanes="edge-south-NS_0 edge-south-NS_1" intLanes=":gneJ23_0_0" shape="143.57,-230.74 156.37,-230.74 155.90,-232.94 154.50,-234.74 152.17,-236.14 148.90,-237.14 144.70,-237.74 139.57,-237.94 139.57,-234.74 141.79,-234.29 142.57,-233.74 143.13,-232.96 143.46,-231.96">
        <request index="0" response="0" foes="0" cont="0"/>
    </junction>
    <junction id="gneJ25" type="priority" x="-35.79" y="-237.89" incLanes="edge-south-side_0" intLanes=":gneJ25_0_0" shape="-35.79,-234.69 -32.59,-234.69 -32.59,-237.89 -34.37,-237.53 -34.99,-237.09 -35.43,-236.47 -35.70,-235.67">
        <request index="0" response="0" foes="0" cont="0"/>
    </junction>
    <junction id="gneJ26" type="dead_end" x="-35.79" y="-189.70" incLanes="edge-dead-end_0" intLanes="" shape="-32.59,-189.70 -35.79,-189.70"/>
    <junction id="junction-intersection" type="priority" x="150.00" y="-60.00" incLanes="edge-north-NS_0 edge-north-NS_1 edge-east-EW_0 edge-east-EW_1 edge-east-EW_2 edge-south-SN_0 edge-south-SN_1 edge-west-WE_0 edge-west-WE_1 edge-west-WE_2" intLanes=":junction-intersection_0_0 :junction-intersection_1_0 :junction-intersection_1_1 :junction-intersection_18_0 :junction-intersection_4_0 :junction-intersection_5_0 :junction-intersection_5_1 :junction-intersection_5_2 :junction-intersection_19_0 :junction-intersection_9_0 :junction-intersection_10_0 :junction-intersection_10_1 :junction-intersection_20_0 :junction-intersection_13_0 :junction-intersection_14_0 :junction-intersection_14_1 :junction-intersection_14_2 :junction-intersection_21_0" shape="143.60,-42.40 156.40,-42.40 156.62,-44.84 157.29,-46.84 158.40,-48.40 159.95,-49.51 161.95,-50.18 164.40,-50.40 164.40,-69.60 161.96,-69.82 159.96,-70.49 158.40,-71.60 157.29,-73.16 156.62,-75.16 156.40,-77.60 143.60,-77.60 143.38,-75.15 142.71,-73.15 141.60,-71.60 140.04,-70.49 138.04,-69.82 135.60,-69.60 135.60,-50.40 138.04,-50.18 140.04,-49.51 141.60,-48.40 142.71,-46.84 143.38,-44.84" radius="8.00" rightOfWay="edgePriority">
        <request index="0"  response="000000000011100000" foes="000000000011100000" cont="0"/>
        <request index="1"  response="011100000000000000" foes="111111000111100000" cont="0"/>
        <request index="2"  response="011100000000000000" foes="111111000111100000" cont="0"/>
        <request index="3"  response="111100110011100000" foes="111100110111100000" cont="1"/>
        <request index="4"  response="000000110000000000" foes="000000110000000000" cont="0"/>
        <request index="5"  response="000000000000000110" foes="100001110000001111" cont="0"/>
        <request index="6"  response="000000000000000110" foes="100001110000001111" cont="0"/>
        <request index="7"  response="000000000000000110" foes="100001110000001111" cont="0"/>
        <request index="8"  response="011100110000001110" foes="011101110000001110" cont="1"/>
        <request index="9"  response="011100000000000000" foes="011100000000000000" cont="0"/>
        <request index="10" response="000000000011100000" foes="111100000111111000" cont="0"/>
        <request index="11" response="000000000011100000" foes="111100000111111000" cont="0"/>
        <request index="12" response="011100000111100110" foes="111100000111100110" cont="1"/>
        <request index="13" response="000000000000000110" foes="000000000000000110" cont="0"/>
        <request index="14" response="000000110000000000" foes="000001111100001110" cont="0"/>
        <request index="15" response="000000110000000000" foes="000001111100001110" cont="0"/>
        <request index="16" response="000000110000000000" foes="000001111100001110" cont="0"/>
        <request index="17" response="000001110011100110" foes="000001110011101110" cont="1"/>
    </junction>

    <junction id=":junction-intersection_18_0" type="internal" x="149.19" y="-49.07" incLanes=":junction-intersection_3_0 edge-east-EW_0 edge-east-EW_1 edge-east-EW_2 edge-south-SN_0 edge-south-SN_1 edge-west-WE_0 edge-west-WE_1 edge-west-WE_2" intLanes=":junction-intersection_5_0 :junction-intersection_5_1 :junction-intersection_5_2 :junction-intersection_8_0 :junction-intersection_9_0 :junction-intersection_10_0 :junction-intersection_10_1 :junction-intersection_14_0 :junction-intersection_14_1 :junction-intersection_14_2 :junction-intersection_17_0"/>
    <junction id=":junction-intersection_19_0" type="internal" x="159.80" y="-59.19" incLanes=":junction-intersection_8_0 edge-north-NS_0 edge-north-NS_1 edge-south-SN_0 edge-south-SN_1 edge-west-WE_0 edge-west-WE_1 edge-west-WE_2" intLanes=":junction-intersection_1_0 :junction-intersection_1_1 :junction-intersection_3_0 :junction-intersection_10_0 :junction-intersection_10_1 :junction-intersection_12_0 :junction-intersection_13_0 :junction-intersection_14_0 :junction-intersection_14_1 :junction-intersection_14_2"/>
    <junction id=":junction-intersection_20_0" type="internal" x="150.80" y="-70.93" incLanes=":junction-intersection_12_0 edge-east-EW_0 edge-east-EW_1 edge-east-EW_2 edge-north-NS_0 edge-north-NS_1 edge-west-WE_0 edge-west-WE_1 edge-west-WE_2" intLanes=":junction-intersection_0_0 :junction-intersection_1_0 :junction-intersection_1_1 :junction-intersection_5_0 :junction-intersection_5_1 :junction-intersection_5_2 :junction-intersection_8_0 :junction-intersection_14_0 :junction-intersection_14_1 :junction-intersection_14_2 :junction-intersection_17_0"/>
    <junction id=":junction-intersection_21_0" type="internal" x="140.20" y="-60.81" incLanes=":junction-intersection_17_0 edge-east-EW_0 edge-east-EW_1 edge-east-EW_2 edge-north-NS_0 edge-north-NS_1 edge-south-SN_0 edge-south-SN_1" intLanes=":junction-intersection_1_0 :junction-intersection_1_1 :junction-intersection_3_0 :junction-intersection_4_0 :junction-intersection_5_0 :junction-intersection_5_1 :junction-intersection_5_2 :junction-intersection_10_0 :junction-intersection_10_1 :junction-intersection_12_0"/>

    <connection from="edge-east-EW" to="edge-north-SN" fromLane="0" toLane="0" via=":junction-intersection_4_0" dir="r" state="m"/>
    <connection from="edge-east-EW" to="edge-west-EW" fromLane="0" toLane="0" via=":junction-intersection_5_0" dir="s" state="m"/>
    <connection from="edge-east-EW" to="edge-west-EW" fromLane="1" toLane="1" via=":junction-intersection_5_1" dir="s" state="m"/>
    <connection from="edge-east-EW" to="edge-west-EW" fromLane="2" toLane="2" via=":junction-intersection_5_2" dir="s" state="m"/>
    <connection from="edge-east-EW" to="edge-south-NS" fromLane="2" toLane="1" via=":junction-intersection_8_0" dir="l" state="m"/>
    <connection from="edge-north-NS" to="edge-west-EW" fromLane="0" toLane="0" via=":junction-intersection_0_0" dir="r" state="m"/>
    <connection from="edge-north-NS" to="edge-south-NS" fromLane="0" toLane="0" via=":junction-intersection_1_0" dir="s" state="m"/>
    <connection from="edge-north-NS" to="edge-south-NS" fromLane="1" toLane="1" via=":junction-intersection_1_1" dir="s" state="m"/>
    <connection from="edge-north-NS" to="edge-east-WE" fromLane="1" toLane="2" via=":junction-intersection_3_0" dir="l" state="m"/>
    <connection from="edge-south-NS" to="edge-south-side" fromLane="0" toLane="0" via=":gneJ23_0_0" dir="r" state="M"/>
    <connection from="edge-south-SN" to="edge-east-WE" fromLane="0" toLane="0" via=":junction-intersection_9_0" dir="r" state="m"/>
    <connection from="edge-south-SN" to="edge-north-SN" fromLane="0" toLane="0" via=":junction-intersection_10_0" dir="s" state="m"/>
    <connection from="edge-south-SN" to="edge-north-SN" fromLane="1" toLane="1" via=":junction-intersection_10_1" dir="s" state="m"/>
    <connection from="edge-south-SN" to="edge-west-EW" fromLane="1" toLane="2" via=":junction-intersection_12_0" dir="l" state="m"/>
    <connection from="edge-south-side" to="edge-dead-end" fromLane="0" toLane="0" via=":gneJ25_0_0" dir="r" state="M"/>
    <connection from="edge-west-WE" to="edge-south-NS" fromLane="0" toLane="0" via=":junction-intersection_13_0" dir="r" state="m"/>
    <connection from="edge-west-WE" to="edge-east-WE" fromLane="0" toLane="0" via=":junction-intersection_14_0" dir="s" state="m"/>
    <connection from="edge-west-WE" to="edge-east-WE" fromLane="1" toLane="1" via=":junction-intersection_14_1" dir="s" state="m"/>
    <connection from="edge-west-WE" to="edge-east-WE" fromLane="2" toLane="2" via=":junction-intersection_14_2" dir="s" state="m"/>
    <connection from="edge-west-WE" to="edge-north-SN" fromLane="2" toLane="1" via=":junction-intersection_17_0" dir="l" state="m"/>

    <connection from=":gneJ23_0" to="edge-south-side" fromLane="0" toLane="0" dir="r" state="M"/>
    <connection from=":gneJ25_0" to="edge-dead-end" fromLane="0" toLane="0" dir="r" state="M"/>
    <connection from=":junction-intersection_0" to="edge-west-EW" fromLane="0" toLane="0" dir="r" state="M"/>
    <connection from=":junction-intersection_1" to="edge-south-NS" fromLane="0" toLane="0" dir="s" state="M"/>
    <connection from=":junction-intersection_1" to="edge-south-NS" fromLane="1" toLane="1" dir="s" state="M"/>
    <connection from=":junction-intersection_3" to="edge-east-WE" fromLane="0" toLane="2" via=":junction-intersection_18_0" dir="l" state="m"/>
    <connection from=":junction-intersection_18" to="edge-east-WE" fromLane="0" toLane="2" dir="l" state="M"/>
    <connection from=":junction-intersection_4" to="edge-north-SN" fromLane="0" toLane="0" dir="r" state="M"/>
    <connection from=":junction-intersection_5" to="edge-west-EW" fromLane="0" toLane="0" dir="s" state="M"/>
    <connection from=":junction-intersection_5" to="edge-west-EW" fromLane="1" toLane="1" dir="s" state="M"/>
    <connection from=":junction-intersection_5" to="edge-west-EW" fromLane="2" toLane="2" dir="s" state="M"/>
    <connection from=":junction-intersection_8" to="edge-south-NS" fromLane="0" toLane="1" via=":junction-intersection_19_0" dir="l" state="m"/>
    <connection from=":junction-intersection_19" to="edge-south-NS" fromLane="0" toLane="1" dir="l" state="M"/>
    <connection from=":junction-intersection_9" to="edge-east-WE" fromLane="0" toLane="0" dir="r" state="M"/>
    <connection from=":junction-intersection_10" to="edge-north-SN" fromLane="0" toLane="0" dir="s" state="M"/>
    <connection from=":junction-intersection_10" to="edge-north-SN" fromLane="1" toLane="1" dir="s" state="M"/>
    <connection from=":junction-intersection_12" to="edge-west-EW" fromLane="0" toLane="2" via=":junction-intersection_20_0" dir="l" state="m"/>
    <connection from=":junction-intersection_20" to="edge-west-EW" fromLane="0" toLane="2" dir="l" state="M"/>
    <connection from=":junction-intersection_13" to="edge-south-NS" fromLane="0" toLane="0" dir="r" state="M"/>
    <connection from=":junction-intersection_14" to="edge-east-WE" fromLane="0" toLane="0" dir="s" state="M"/>
    <connection from=":junction-intersection_14" to="edge-east-WE" fromLane="1" toLane="1" dir="s" state="M"/>
    <connection from=":junction-intersection_14" to="edge-east-WE" fromLane="2" toLane="2" dir="s" state="M"/>
    <connection from=":junction-intersection_17" to="edge-north-SN" fromLane="0" toLane="1" via=":junction-intersection_21_0" dir="l" state="m"/>
    <connection from=":junction-intersection_21" to="edge-north-SN" fromLane="0" toLane="1" dir="l" state="M"/>

</net>
