<?xml version="1.0" encoding="UTF-8"?>

<!-- generated on 2022-04-22 01:18:23 by Eclipse SUMO netedit Version 1.10.0
<configuration xmlns:xsi="http://www.w3.org/2001/XMLSchema-instance" xsi:noNamespaceSchemaLocation="http://sumo.dlr.de/xsd/netconvertConfiguration.xsd">

    <input>
        <sumo-net-file value="scenarios/NGSIM/peachtree/map.net.xml"/>
    </input>

    <output>
        <output-file value="scenarios/NGSIM/peachtree/map.net.xml"/>
    </output>

    <processing>
        <geometry.min-radius.fix.railways value="false"/>
        <geometry.max-grade.fix value="false"/>
        <offset.disable-normalization value="true"/>
        <lefthand value="false"/>
    </processing>

    <junctions>
        <no-internal-links value="true"/>
        <no-turnarounds value="true"/>
        <junctions.corner-detail value="5"/>
        <junctions.limit-turn-speed value="5.5"/>
        <rectangular-lane-cut value="false"/>
    </junctions>

    <pedestrian>
        <walkingareas value="false"/>
    </pedestrian>

    <report>
        <aggregate-warnings value="5"/>
    </report>

</configuration>
-->

<net version="1.9" junctionCornerDetail="5" limitTurnSpeed="5.50" xmlns:xsi="http://www.w3.org/2001/XMLSchema-instance" xsi:noNamespaceSchemaLocation="http://sumo.dlr.de/xsd/net_file.xsd">

    <location netOffset="14.67,-4.68" convBoundary="-17.58,-3.02,28.44,626.15" origBoundary="-10000000000.00,-10000000000.00,10000000000.00,10000000000.00" projParameter="!"/>

    <edge id="E0" from="J4" to="J0" priority="-1" shape="-0.86,44.92 -3.28,103.81 -3.79,184.62">
        <lane id="E0_0" index="0" speed="13.89" length="139.75" shape="3.24,62.04 1.52,103.92 1.01,184.48"/>
        <lane id="E0_1" index="1" speed="13.89" length="139.75" shape="0.04,61.91 -1.68,103.85 -2.19,184.46"/>
    </edge>
    <edge id="E1" from="J3" to="J4" priority="-1">
        <lane id="E1_0" index="0" speed="13.89" length="45.37" shape="3.97,3.60 3.94,40.92"/>
        <lane id="E1_1" index="1" speed="13.89" length="45.37" shape="0.77,3.60 0.74,40.92"/>
    </edge>
    <edge id="E11" from="J16" to="J21" priority="-1">
        <lane id="E11_0" index="0" speed="13.89" length="25.98" shape="2.99,370.90 1.21,385.29"/>
        <lane id="E11_1" index="1" speed="13.89" length="25.98" shape="-0.19,370.50 -1.97,384.90"/>
    </edge>
    <edge id="E12" from="J21" to="J22" priority="-1">
        <lane id="E12_0" index="0" speed="13.89" length="37.37" shape="1.20,385.58 3.33,422.31"/>
        <lane id="E12_1" index="1" speed="13.89" length="37.37" shape="-2.00,385.77 0.14,422.50"/>
    </edge>
    <edge id="E15" from="J25" to="J16" priority="-1">
        <lane id="E15_0" index="0" speed="13.89" length="24.82" shape="22.96,369.06 9.30,366.34"/>
        <lane id="E15_1" index="1" speed="13.89" length="24.82" shape="23.59,365.92 9.93,363.20"/>
    </edge>
    <edge id="E16" from="J16" to="J26" priority="-1">
        <lane id="E16_0" index="0" speed="13.89" length="11.96" shape="-5.69,362.89 -13.29,360.52"/>
        <lane id="E16_1" index="1" speed="13.89" length="11.96" shape="-4.73,359.84 -12.34,357.47"/>
    </edge>
    <edge id="E17" from="J27" to="J28" priority="-1" shape="0.96,362.22 1.80,321.00 2.40,309.66 0.68,263.44">
        <lane id="E17_0" index="0" speed="13.89" length="98.84" shape="-0.64,362.19 0.20,320.94 0.80,309.65 -0.92,263.50"/>
    </edge>
    <edge id="E18" from="J22" to="J29" priority="-1">
        <lane id="E18_0" index="0" speed="13.89" length="185.83" shape="3.34,422.53 5.56,604.39"/>
        <lane id="E18_1" index="1" speed="13.89" length="185.83" shape="0.14,422.57 2.36,604.43"/>
    </edge>
    <edge id="E19" from="J29" to="J30" priority="-1">
        <lane id="E19_0" index="0" speed="13.89" length="17.85" shape="4.40,619.60 3.62,626.68"/>
        <lane id="E19_1" index="1" speed="13.89" length="17.85" shape="1.22,619.25 0.44,626.33"/>
    </edge>
    <edge id="E20" from="J31" to="J29" priority="-1">
        <lane id="E20_0" index="0" speed="13.89" length="21.09" shape="21.31,615.32 10.68,614.24"/>
        <lane id="E20_1" index="1" speed="13.89" length="21.09" shape="21.63,612.13 11.00,611.05"/>
    </edge>
    <edge id="E22" from="J34" to="J35" priority="-1">
        <lane id="E22_0" index="0" speed="13.89" length="69.33" shape="-0.41,611.40 -1.23,542.07"/>
    </edge>
    <edge id="E23" from="J29" to="J36" priority="-1">
        <lane id="E23_0" index="0" speed="13.89" length="18.85" shape="-4.15,614.44 -16.53,617.21"/>
        <lane id="E23_1" index="1" speed="13.89" length="18.85" shape="-4.85,611.32 -17.23,614.09"/>
    </edge>
    <edge id="E4" from="J6" to="J4" priority="-1">
        <lane id="E4_0" index="0" speed="13.89" length="32.16" shape="25.14,65.47 9.31,58.30"/>
        <lane id="E4_1" index="1" speed="13.89" length="32.16" shape="26.46,62.55 10.63,55.39"/>
        <lane id="E4_2" index="2" speed="13.89" length="32.16" shape="27.78,59.64 11.95,52.47"/>
    </edge>
    <edge id="E6" from="J8" to="J3" priority="-1">
        <lane id="E6_0" index="0" speed="13.89" length="12.64" shape="13.27,1.78 5.53,2.01"/>
        <lane id="E6_1" index="1" speed="13.89" length="12.64" shape="13.18,-1.42 5.43,-1.19"/>
    </edge>
    <edge id="E7" from="J4" to="J10" priority="-1">
        <lane id="E7_0" index="0" speed="13.89" length="15.44" shape="-8.18,50.06 -18.24,44.62"/>
        <lane id="E7_1" index="1" speed="13.89" length="15.44" shape="-6.66,47.24 -16.72,41.80"/>
        <lane id="E7_2" index="2" speed="13.89" length="15.44" shape="-5.14,44.43 -15.20,38.99"/>
    </edge>
    <edge id="E8" from="J0" to="J11" priority="-1">
        <lane id="E8_0" index="0" speed="13.89" length="124.87" shape="1.01,184.56 6.95,309.12"/>
        <lane id="E8_1" index="1" speed="13.89" length="124.87" shape="-2.18,184.72 3.76,309.27"/>
    </edge>
    <edge id="E9" from="J11" to="J16" priority="-1">
        <lane id="E9_0" index="0" speed="13.89" length="50.22" shape="6.80,312.59 4.56,355.75"/>
        <lane id="E9_1" index="1" speed="13.89" length="50.22" shape="3.60,312.43 1.36,355.59"/>
    </edge>

    <junction id="J0" type="priority" x="-3.79" y="184.62" incLanes="E0_0 E0_1" intLanes="" shape="-3.78,184.79 2.61,184.49 -3.79,184.45">
        <request index="0" response="00" foes="00"/>
        <request index="1" response="00" foes="00"/>
    </junction>
    <junction id="J10" type="dead_end" x="-14.44" y="37.58" incLanes="E7_0 E7_1 E7_2" intLanes="" shape="-19.00,46.03 -14.44,37.58"/>
    <junction id="J11" type="priority" x="2.16" y="309.35" incLanes="E8_0 E8_1" intLanes="" shape="8.55,309.05 2.16,309.35 2.17,310.46 2.14,310.85 2.10,311.24 2.05,311.71 2.00,312.35 8.40,312.68 8.50,311.33 8.54,310.86 8.57,310.39 8.58,309.82">
        <request index="0" response="00" foes="00"/>
        <request index="1" response="00" foes="00"/>
    </junction>
    <junction id="J16" type="priority" x="-0.44" y="359.50" incLanes="E15_0 E15_1 E9_0 E9_1" intLanes="" shape="8.99,367.90 10.24,361.63 7.86,360.60 7.05,359.75 6.50,358.67 6.20,357.37 6.16,355.84 -0.23,355.51 -0.77,357.59 -1.34,358.20 -2.11,358.53 -3.09,358.56 -4.26,358.31 -6.16,364.42 -3.49,365.76 -2.60,366.66 -2.03,367.72 -1.75,368.93 -1.78,370.31 4.57,371.09 5.28,368.97 5.92,368.31 6.75,367.91 7.78,367.78">
        <request index="0" response="000000" foes="011000"/>
        <request index="1" response="000000" foes="111000"/>
        <request index="2" response="000000" foes="111000"/>
        <request index="3" response="000111" foes="000111"/>
        <request index="4" response="000111" foes="000111"/>
        <request index="5" response="000110" foes="000110"/>
    </junction>
    <junction id="J21" type="priority" x="-3.63" y="385.28" incLanes="E11_0 E11_1" intLanes="" shape="-3.60,385.86 2.79,385.49 -3.56,384.70 -3.61,385.13 -3.62,385.28 -3.62,385.43 -3.61,385.61">
        <request index="0" response="00" foes="00"/>
        <request index="1" response="00" foes="00"/>
    </junction>
    <junction id="J22" type="priority" x="-1.46" y="422.59" incLanes="E12_0 E12_1" intLanes="" shape="-1.46,422.65 4.94,422.57 4.93,422.16 -1.46,422.53">
        <request index="0" response="00" foes="00"/>
        <request index="1" response="00" foes="00"/>
    </junction>
    <junction id="J25" type="dead_end" x="23.90" y="364.35" incLanes="" intLanes="" shape="23.90,364.35 22.65,370.63"/>
    <junction id="J26" type="dead_end" x="-11.86" y="355.94" incLanes="E16_0 E16_1" intLanes="" shape="-13.76,362.05 -11.86,355.94"/>
    <junction id="J27" type="dead_end" x="0.96" y="362.22" incLanes="" intLanes="" shape="0.96,362.22 -2.24,362.15"/>
    <junction id="J28" type="dead_end" x="0.68" y="263.44" incLanes="E17_0" intLanes="" shape="-2.52,263.56 0.68,263.44"/>
    <junction id="J29" type="priority" x="0.81" y="608.41" incLanes="E20_0 E20_1 E18_0 E18_1" intLanes="" shape="10.52,615.83 11.16,609.46 8.97,608.72 8.19,607.99 7.63,607.02 7.29,605.81 7.16,604.37 0.76,604.45 0.12,606.80 -0.70,607.76 -1.87,608.57 -3.37,609.24 -5.20,609.76 -3.80,616.00 -1.70,615.96 -1.01,616.34 -0.56,616.98 -0.34,617.90 -0.37,619.08 5.99,619.78 6.71,617.40 7.36,616.61 8.22,616.08 9.27,615.82">
        <request index="0" response="000000" foes="011000"/>
        <request index="1" response="000000" foes="111000"/>
        <request index="2" response="000000" foes="111000"/>
        <request index="3" response="000111" foes="000111"/>
        <request index="4" response="000111" foes="000111"/>
        <request index="5" response="000110" foes="000110"/>
    </junction>
    <junction id="J3" type="priority" x="-0.82" y="-2.61" incLanes="E6_0 E6_1" intLanes="" shape="-0.83,3.60 5.57,3.60 5.39,-2.79 1.94,-2.00 0.73,-1.10 -0.13,0.13 -0.65,1.70">
        <request index="0" response="00" foes="00"/>
        <request index="1" response="00" foes="00"/>
    </junction>
    <junction id="J30" type="dead_end" x="-1.15" y="626.15" incLanes="E19_0 E19_1" intLanes="" shape="5.21,626.85 -1.15,626.15"/>
    <junction id="J31" type="dead_end" x="21.79" y="610.54" incLanes="" intLanes="" shape="21.79,610.54 21.14,616.91"/>
    <junction id="J34" type="dead_end" x="1.19" y="611.38" incLanes="" intLanes="" shape="1.19,611.38 -2.01,611.42"/>
    <junction id="J35" type="dead_end" x="0.37" y="542.05" incLanes="E22_0" intLanes="" shape="-2.83,542.09 0.37,542.05"/>
    <junction id="J36" type="dead_end" x="-17.58" y="612.53" incLanes="E23_0 E23_1" intLanes="" shape="-16.18,618.78 -17.58,612.53"/>
    <junction id="J4" type="priority" x="-0.86" y="44.92" incLanes="E4_0 E4_1 E4_2 E1_0 E1_1" intLanes="" shape="8.65,59.76 12.61,51.01 10.45,49.85 8.68,48.47 7.31,46.89 6.33,45.11 5.74,43.12 5.54,40.93 -0.86,40.92 -1.25,42.93 -1.74,43.44 -2.42,43.63 -3.30,43.49 -4.38,43.02 -8.94,51.46 -6.61,52.90 -4.72,54.45 -3.27,56.12 -2.26,57.91 -1.69,59.82 -1.56,61.84 4.84,62.11 5.34,60.07 5.87,59.52 6.60,59.29 7.53,59.37">
        <request index="0" response="00000000" foes="00110000"/>
        <request index="1" response="00000000" foes="11110000"/>
        <request index="2" response="00000000" foes="11110000"/>
        <request index="3" response="00000000" foes="11110000"/>
        <request index="4" response="00001111" foes="00001111"/>
        <request index="5" response="00001111" foes="00001111"/>
        <request index="6" response="00001110" foes="00001110"/>
        <request index="7" response="00001110" foes="00001110"/>
    </junction>
    <junction id="J6" type="dead_end" x="28.44" y="58.18" incLanes="" intLanes="" shape="28.44,58.18 24.48,66.93"/>
    <junction id="J8" type="dead_end" x="13.13" y="-3.02" incLanes="" intLanes="" shape="13.13,-3.02 13.32,3.38"/>

    <connection from="E0" to="E8" fromLane="0" toLane="0" dir="s" state="M"/>
    <connection from="E0" to="E8" fromLane="1" toLane="1" dir="s" state="M"/>
    <connection from="E1" to="E0" fromLane="0" toLane="0" dir="s" state="m"/>
    <connection from="E1" to="E0" fromLane="1" toLane="1" dir="s" state="m"/>
    <connection from="E1" to="E7" fromLane="1" toLane="1" dir="l" state="m"/>
    <connection from="E1" to="E7" fromLane="1" toLane="2" dir="l" state="m"/>
    <connection from="E11" to="E12" fromLane="0" toLane="0" dir="s" state="M"/>
    <connection from="E11" to="E12" fromLane="1" toLane="1" dir="s" state="M"/>
    <connection from="E12" to="E18" fromLane="0" toLane="0" dir="s" state="M"/>
    <connection from="E12" to="E18" fromLane="1" toLane="1" dir="s" state="M"/>
    <connection from="E15" to="E11" fromLane="0" toLane="0" dir="r" state="M"/>
    <connection from="E15" to="E16" fromLane="0" toLane="0" dir="s" state="M"/>
    <connection from="E15" to="E16" fromLane="1" toLane="1" dir="s" state="M"/>
    <connection from="E18" to="E19" fromLane="0" toLane="0" dir="s" state="m"/>
    <connection from="E18" to="E19" fromLane="1" toLane="1" dir="s" state="m"/>
    <connection from="E18" to="E23" fromLane="1" toLane="1" dir="l" state="m"/>
    <connection from="E20" to="E19" fromLane="0" toLane="0" dir="r" state="M"/>
    <connection from="E20" to="E23" fromLane="0" toLane="0" dir="s" state="M"/>
    <connection from="E20" to="E23" fromLane="1" toLane="1" dir="s" state="M"/>
    <connection from="E4" to="E0" fromLane="0" toLane="0" dir="r" state="M"/>
    <connection from="E4" to="E7" fromLane="0" toLane="0" dir="s" state="M"/>
    <connection from="E4" to="E7" fromLane="1" toLane="1" dir="s" state="M"/>
    <connection from="E4" to="E7" fromLane="2" toLane="2" dir="s" state="M"/>
    <connection from="E6" to="E1" fromLane="0" toLane="0" dir="r" state="M"/>
    <connection from="E6" to="E1" fromLane="1" toLane="1" dir="r" state="M"/>
    <connection from="E8" to="E9" fromLane="0" toLane="0" dir="s" state="M"/>
    <connection from="E8" to="E9" fromLane="1" toLane="1" dir="s" state="M"/>
    <connection from="E9" to="E11" fromLane="0" toLane="0" dir="s" state="m"/>
    <connection from="E9" to="E11" fromLane="1" toLane="1" dir="s" state="m"/>
    <connection from="E9" to="E16" fromLane="1" toLane="1" dir="l" state="m"/>

</net>
