<?xml version="1.0" encoding="UTF-8"?>

<!-- generated on 2022-05-31 12:43:06 by Eclipse SUMO netedit Version 1.13.0
<configuration xmlns:xsi="http://www.w3.org/2001/XMLSchema-instance" xsi:noNamespaceSchemaLocation="http://sumo.dlr.de/xsd/netconvertConfiguration.xsd">

    <input>
        <sumo-net-file value="scenarios/NGSIM/peachtree/map.net.xml"/>
    </input>

    <output>
        <output-file value="scenarios/NGSIM/peachtree/map.net.xml"/>
    </output>

    <processing>
        <geometry.min-radius.fix.railways value="false"/>
        <geometry.max-grade.fix value="false"/>
        <offset.disable-normalization value="true"/>
        <lefthand value="false"/>
    </processing>

    <junctions>
        <no-turnarounds value="true"/>
        <junctions.corner-detail value="5"/>
        <junctions.limit-turn-speed value="5.5"/>
        <rectangular-lane-cut value="false"/>
    </junctions>

    <pedestrian>
        <walkingareas value="false"/>
    </pedestrian>

    <report>
        <aggregate-warnings value="5"/>
    </report>

</configuration>
-->

<net version="1.9" junctionCornerDetail="5" limitTurnSpeed="5.50" xmlns:xsi="http://www.w3.org/2001/XMLSchema-instance" xsi:noNamespaceSchemaLocation="http://sumo.dlr.de/xsd/net_file.xsd">

    <location netOffset="0.00,0.00" convBoundary="-58.83,-0.09,52.80,668.01" origBoundary="-10000000000.00,-10000000000.00,10000000000.00,10000000000.00" projParameter="!"/>

    <edge id=":J1_0" function="internal">
        <lane id=":J1_0_0" index="0" speed="6.01" length="9.12" shape="11.32,61.90 8.73,61.53 6.88,62.14 5.75,63.74 5.34,66.31"/>
    </edge>
    <edge id=":J1_1" function="internal">
        <lane id=":J1_1_0" index="0" speed="13.89" length="26.87" shape="11.32,61.90 -14.71,55.24"/>
        <lane id=":J1_1_1" index="1" speed="13.89" length="26.87" shape="12.21,58.82 -13.84,52.16"/>
    </edge>
    <edge id=":J1_3" function="internal">
        <lane id=":J1_3_0" index="0" speed="12.35" length="27.99" shape="12.21,58.82 7.27,56.11 3.77,51.27 1.73,44.31 1.13,35.21"/>
    </edge>
    <edge id=":J1_4" function="internal">
        <lane id=":J1_4_0" index="0" speed="9.80" length="17.33" shape="7.51,35.29 7.91,40.72 9.27,44.91 11.61,47.86 14.90,49.58"/>
    </edge>
    <edge id=":J1_5" function="internal">
        <lane id=":J1_5_0" index="0" speed="13.89" length="31.10" shape="7.51,35.29 5.34,66.31"/>
        <lane id=":J1_5_1" index="1" speed="13.89" length="31.10" shape="4.31,35.25 2.14,66.28"/>
    </edge>
    <edge id=":J1_7" function="internal">
        <lane id=":J1_7_0" index="0" speed="10.55" length="30.51" shape="4.31,35.25 3.26,44.23 0.14,50.28 -5.43,53.03 -13.84,52.16"/>
    </edge>
    <edge id=":J1_8" function="internal">
        <lane id=":J1_8_0" index="0" speed="6.75" length="11.79" shape="-11.25,42.98 -8.68,43.12 -6.82,41.85 -5.69,39.19 -5.27,35.13"/>
    </edge>
    <edge id=":J1_9" function="internal">
        <lane id=":J1_9_0" index="0" speed="13.89" length="26.94" shape="-11.25,42.98 14.90,49.58"/>
        <lane id=":J1_9_1" index="1" speed="13.89" length="26.94" shape="-12.11,46.06 14.01,52.65"/>
        <lane id=":J1_9_2" index="2" speed="13.89" length="26.94" shape="-12.98,49.14 13.11,55.73"/>
    </edge>
    <edge id=":J1_12" function="internal">
        <lane id=":J1_12_0" index="0" speed="11.61" length="24.77" shape="-12.98,49.14 -6.30,51.85 -1.56,55.60 1.26,60.41 2.14,66.28"/>
    </edge>
    <edge id=":J1_13" function="internal">
        <lane id=":J1_13_0" index="0" speed="8.90" length="14.22" shape="-7.52,66.20 -7.93,62.18 -9.26,59.01 -11.52,56.70 -14.71,55.24"/>
    </edge>
    <edge id=":J1_14" function="internal">
        <lane id=":J1_14_0" index="0" speed="13.89" length="31.14" shape="-7.52,66.20 -5.27,35.13"/>
        <lane id=":J1_14_1" index="1" speed="13.89" length="31.14" shape="-4.32,66.23 -2.07,35.17"/>
        <lane id=":J1_14_2" index="2" speed="13.89" length="31.14" shape="-1.12,66.25 1.13,35.21"/>
    </edge>
    <edge id=":J1_17" function="internal">
        <lane id=":J1_17_0" index="0" speed="8.95" length="2.56" shape="-1.12,66.25 -0.73,63.73"/>
    </edge>
    <edge id=":J1_18" function="internal">
        <lane id=":J1_18_0" index="0" speed="8.95" length="19.20" shape="-0.73,63.73 -0.17,60.11 2.53,56.31 6.95,54.85 13.11,55.73"/>
    </edge>
    <edge id=":J10_0" function="internal">
        <lane id=":J10_0_0" index="0" speed="8.74" length="17.18" shape="-7.07,384.06 -7.44,377.56 -8.50,372.92 -10.26,370.14 -12.71,369.23"/>
    </edge>
    <edge id=":J10_1" function="internal">
        <lane id=":J10_1_0" index="0" speed="13.89" length="30.13" shape="-7.07,384.06 -4.68,354.04"/>
        <lane id=":J10_1_1" index="1" speed="13.89" length="30.13" shape="-3.87,384.06 -1.48,354.01"/>
    </edge>
    <edge id=":J10_3" function="internal">
        <lane id=":J10_3_0" index="0" speed="11.28" length="13.13" shape="-3.87,384.06 -2.77,376.02 -0.26,371.68"/>
        <lane id=":J10_3_1" index="1" speed="10.28" length="5.02" shape="-0.67,384.05 0.00,379.07"/>
    </edge>
    <edge id=":J10_18" function="internal">
        <lane id=":J10_18_0" index="0" speed="11.28" length="16.07" shape="-0.26,371.68 0.56,370.27 6.12,366.80 13.92,365.62"/>
    </edge>
    <edge id=":J10_19" function="internal">
        <lane id=":J10_19_0" index="0" speed="10.28" length="19.03" shape="0.00,379.07 0.23,377.41 2.96,372.66 7.53,369.80 13.94,368.82"/>
    </edge>
    <edge id=":J10_5" function="internal">
        <lane id=":J10_5_0" index="0" speed="7.18" length="11.18" shape="13.98,378.40 10.41,378.77 7.86,379.83 6.33,381.59 5.83,384.04"/>
    </edge>
    <edge id=":J10_6" function="internal">
        <lane id=":J10_6_0" index="0" speed="13.89" length="28.59" shape="13.98,378.40 5.26,376.99 -0.91,373.82 -6.31,370.65 -12.71,369.23"/>
        <lane id=":J10_6_1" index="1" speed="13.89" length="28.59" shape="13.97,375.20 5.25,373.79 -0.92,370.62 -6.32,367.45 -12.73,366.03"/>
    </edge>
    <edge id=":J10_8" function="internal">
        <lane id=":J10_8_0" index="0" speed="10.86" length="26.95" shape="13.95,372.00 7.26,370.91 2.46,367.55 -0.45,361.91 -1.48,354.01"/>
    </edge>
    <edge id=":J10_9" function="internal">
        <lane id=":J10_9_0" index="0" speed="7.28" length="11.50" shape="8.22,353.92 8.61,357.65 9.69,360.31 11.46,361.90 13.91,362.42"/>
        <lane id=":J10_9_1" index="1" speed="8.64" length="16.61" shape="5.02,353.95 5.63,359.07 7.32,362.72 10.08,364.91 13.92,365.62"/>
    </edge>
    <edge id=":J10_11" function="internal">
        <lane id=":J10_11_0" index="0" speed="13.89" length="30.09" shape="5.02,353.95 5.83,384.04"/>
        <lane id=":J10_11_1" index="1" speed="13.89" length="30.09" shape="1.82,353.98 2.63,384.04"/>
    </edge>
    <edge id=":J10_13" function="internal">
        <lane id=":J10_13_0" index="0" speed="9.71" length="5.81" shape="1.82,353.98 0.97,359.22 0.67,359.63"/>
    </edge>
    <edge id=":J10_20" function="internal">
        <lane id=":J10_20_0" index="0" speed="9.71" length="15.70" shape="0.67,359.63 -1.74,362.98 -6.31,365.24 -12.73,366.03"/>
    </edge>
    <edge id=":J10_14" function="internal">
        <lane id=":J10_14_0" index="0" speed="7.14" length="11.14" shape="-12.76,359.68 -9.21,359.31 -6.67,358.25 -5.16,356.49 -4.68,354.04"/>
    </edge>
    <edge id=":J10_15" function="internal">
        <lane id=":J10_15_0" index="0" speed="13.89" length="27.51" shape="-12.76,359.68 -6.30,360.60 -0.80,362.66 5.39,364.71 13.92,365.62"/>
        <lane id=":J10_15_1" index="1" speed="13.89" length="27.51" shape="-12.75,362.88 -6.28,363.80 -0.78,365.86 5.41,367.91 13.94,368.82"/>
    </edge>
    <edge id=":J10_17" function="internal">
        <lane id=":J10_17_0" index="0" speed="11.34" length="29.62" shape="-12.75,362.88 -6.03,364.18 -1.23,368.14 1.65,374.76 2.63,384.04"/>
    </edge>
    <edge id=":J11_0" function="internal">
        <lane id=":J11_0_0" index="0" speed="6.15" length="9.06" shape="-6.68,626.28 -7.06,623.76 -8.16,622.12 -9.98,621.35 -12.53,621.46"/>
    </edge>
    <edge id=":J11_1" function="internal">
        <lane id=":J11_1_0" index="0" speed="13.89" length="26.10" shape="-6.68,626.28 -6.40,600.18"/>
        <lane id=":J11_1_1" index="1" speed="13.89" length="26.10" shape="-3.48,626.26 -3.20,600.17"/>
    </edge>
    <edge id=":J11_3" function="internal">
        <lane id=":J11_3_0" index="0" speed="10.92" length="4.06" shape="-0.28,626.25 0.19,622.22"/>
    </edge>
    <edge id=":J11_19" function="internal">
        <lane id=":J11_19_0" index="0" speed="10.92" length="21.31" shape="0.19,622.22 0.56,618.96 3.18,613.55 7.58,610.03 13.75,608.38"/>
    </edge>
    <edge id=":J11_4" function="internal">
        <lane id=":J11_4_0" index="0" speed="7.34" length="10.91" shape="14.71,617.98 12.33,618.69 10.65,620.30 9.64,622.80 9.32,626.19"/>
        <lane id=":J11_4_1" index="1" speed="8.69" length="15.71" shape="14.39,614.79 10.75,615.82 8.16,618.06 6.62,621.53 6.12,626.21"/>
    </edge>
    <edge id=":J11_6" function="internal">
        <lane id=":J11_6_0" index="0" speed="13.89" length="27.93" shape="14.39,614.79 5.75,616.16 -0.56,617.95 -6.12,619.83 -12.53,621.46"/>
        <lane id=":J11_6_1" index="1" speed="13.89" length="27.93" shape="14.07,611.61 5.33,612.98 -1.06,614.79 -6.69,616.68 -13.12,618.32"/>
    </edge>
    <edge id=":J11_8" function="internal">
        <lane id=":J11_8_0" index="0" speed="9.92" length="24.01" shape="14.07,611.61 6.54,611.54 1.15,609.61 -2.10,605.82 -3.20,600.17"/>
    </edge>
    <edge id=":J11_9" function="internal">
        <lane id=":J11_9_0" index="0" speed="6.62" length="10.04" shape="6.44,600.13 6.89,602.61 8.21,604.28 10.39,605.14 13.44,605.20"/>
    </edge>
    <edge id=":J11_10" function="internal">
        <lane id=":J11_10_0" index="0" speed="13.89" length="26.27" shape="6.44,600.13 6.92,607.89 7.89,613.16 8.85,618.43 9.32,626.19"/>
        <lane id=":J11_10_1" index="1" speed="13.89" length="26.27" shape="3.24,600.15 3.72,607.91 4.69,613.18 5.65,618.45 6.12,626.21"/>
        <lane id=":J11_10_2" index="2" speed="13.89" length="26.27" shape="0.04,600.16 0.52,607.92 1.49,613.19 2.45,618.47 2.92,626.23"/>
    </edge>
    <edge id=":J11_13" function="internal">
        <lane id=":J11_13_0" index="0" speed="11.16" length="7.05" shape="0.04,600.16 -0.74,607.16"/>
    </edge>
    <edge id=":J11_20" function="internal">
        <lane id=":J11_20_0" index="0" speed="11.16" length="17.61" shape="-0.74,607.16 -3.19,612.52 -7.32,616.24 -13.12,618.32"/>
    </edge>
    <edge id=":J11_14" function="internal">
        <lane id=":J11_14_0" index="0" speed="8.34" length="13.32" shape="-14.91,608.83 -11.18,607.68 -8.51,605.86 -6.92,603.36 -6.40,600.18"/>
    </edge>
    <edge id=":J11_15" function="internal">
        <lane id=":J11_15_0" index="0" speed="13.89" length="28.46" shape="-14.91,608.83 -5.96,607.28 0.79,606.38 6.78,605.81 13.44,605.20"/>
        <lane id=":J11_15_1" index="1" speed="13.89" length="28.46" shape="-14.32,611.98 -5.47,610.44 1.20,609.56 7.12,608.99 13.75,608.38"/>
    </edge>
    <edge id=":J11_17" function="internal">
        <lane id=":J11_17_0" index="0" speed="10.77" length="30.28" shape="-14.32,611.98 -5.40,611.16 0.97,612.93 4.81,617.79 6.12,626.21"/>
        <lane id=":J11_17_1" index="1" speed="9.61" length="23.84" shape="-13.72,615.12 -6.47,614.63 -1.28,616.32 1.85,620.19 2.92,626.23"/>
    </edge>
    <edge id=":J15_0" function="internal">
        <lane id=":J15_0_0" index="0" speed="6.48" length="9.03" shape="11.62,492.51 9.17,492.84 7.41,493.88 6.37,495.63 6.02,498.08"/>
    </edge>
    <edge id=":J15_1" function="internal">
        <lane id=":J15_1_0" index="0" speed="13.89" length="11.20" shape="5.99,486.88 6.02,498.08"/>
        <lane id=":J15_1_1" index="1" speed="13.89" length="11.20" shape="2.79,486.89 2.82,498.09"/>
    </edge>
    <edge id=":J17_0" function="internal">
        <lane id=":J17_0_0" index="0" speed="13.89" length="8.26" shape="6.28,582.05 6.36,590.04"/>
        <lane id=":J17_0_1" index="1" speed="13.89" length="8.26" shape="3.08,582.06 3.16,590.06"/>
        <lane id=":J17_0_2" index="2" speed="13.89" length="8.26" shape="3.08,582.06 2.59,584.52 1.51,586.07 0.44,587.62 -0.04,590.08"/>
    </edge>
    <edge id=":J18_0" function="internal">
        <lane id=":J18_0_0" index="0" speed="13.89" length="8.25" shape="-6.44,589.70 -6.58,581.70"/>
        <lane id=":J18_0_1" index="1" speed="13.89" length="8.25" shape="-3.24,589.69 -3.38,581.69"/>
        <lane id=":J18_0_2" index="2" speed="13.89" length="8.25" shape="-3.24,589.69 -2.77,587.23 -1.71,585.69 -0.66,584.14 -0.18,581.68"/>
    </edge>
    <edge id=":J4_0" function="internal">
        <lane id=":J4_0_0" index="0" speed="8.57" length="17.14" shape="-8.03,234.32 -8.66,228.28 -10.14,224.06 -12.47,221.64 -15.66,221.04"/>
    </edge>
    <edge id=":J4_1" function="internal">
        <lane id=":J4_1_0" index="0" speed="13.89" length="31.55" shape="-8.03,234.32 -9.20,202.66"/>
        <lane id=":J4_1_1" index="1" speed="13.89" length="31.55" shape="-4.83,234.23 -6.00,202.70"/>
        <lane id=":J4_1_2" index="2" speed="13.89" length="31.55" shape="-1.64,234.14 -2.80,202.74"/>
    </edge>
    <edge id=":J4_4" function="internal">
        <lane id=":J4_4_0" index="0" speed="11.53" length="8.31" shape="-1.64,234.14 -1.16,225.84"/>
    </edge>
    <edge id=":J4_17" function="internal">
        <lane id=":J4_17_0" index="0" speed="11.53" length="19.87" shape="-1.16,225.84 -1.11,224.92 1.09,218.09 4.95,213.66 10.48,211.61"/>
    </edge>
    <edge id=":J4_5" function="internal">
        <lane id=":J4_5_0" index="0" speed="9.44" length="18.51" shape="11.27,218.12 8.31,219.46 6.26,222.54 5.11,227.38 4.87,233.95"/>
    </edge>
    <edge id=":J4_6" function="internal">
        <lane id=":J4_6_0" index="0" speed="13.89" length="27.00" shape="11.27,218.12 -15.66,221.04"/>
        <lane id=":J4_6_1" index="1" speed="13.89" length="27.00" shape="10.84,214.95 -15.93,217.85"/>
    </edge>
    <edge id=":J4_8" function="internal">
        <lane id=":J4_8_0" index="0" speed="9.28" length="21.66" shape="10.84,214.95 4.81,214.89 0.52,212.84 -2.01,208.79 -2.80,202.74"/>
    </edge>
    <edge id=":J4_9" function="internal">
        <lane id=":J4_9_0" index="0" speed="6.53" length="10.13" shape="3.60,202.82 3.97,205.61 5.17,207.47 7.20,208.42 10.06,208.44"/>
    </edge>
    <edge id=":J4_10" function="internal">
        <lane id=":J4_10_0" index="0" speed="13.89" length="31.23" shape="3.60,202.82 4.87,233.95"/>
        <lane id=":J4_10_1" index="1" speed="13.89" length="31.23" shape="0.40,202.78 1.67,234.04"/>
    </edge>
    <edge id=":J4_12" function="internal">
        <lane id=":J4_12_0" index="0" speed="10.81" length="3.37" shape="0.40,202.78 -0.19,206.10"/>
    </edge>
    <edge id=":J4_18" function="internal">
        <lane id=":J4_18_0" index="0" speed="10.81" length="21.42" shape="-0.19,206.10 -0.69,208.86 -3.77,213.40 -8.85,216.40 -15.93,217.85"/>
    </edge>
    <edge id=":J4_13" function="internal">
        <lane id=":J4_13_0" index="0" speed="7.87" length="12.70" shape="-16.38,211.49 -13.28,210.71 -11.05,208.98 -9.69,206.30 -9.20,202.66"/>
    </edge>
    <edge id=":J4_14" function="internal">
        <lane id=":J4_14_0" index="0" speed="13.89" length="26.69" shape="-16.38,211.49 10.06,208.44"/>
        <lane id=":J4_14_1" index="1" speed="13.89" length="26.69" shape="-16.11,214.68 10.48,211.61"/>
    </edge>
    <edge id=":J4_16" function="internal">
        <lane id=":J4_16_0" index="0" speed="11.25" length="30.29" shape="-16.11,214.68 -8.56,215.34 -3.07,218.79 0.34,225.03 1.67,234.04"/>
    </edge>
    <edge id=":J7_0" function="internal">
        <lane id=":J7_0_0" index="0" speed="13.89" length="8.20" shape="-4.68,353.71 -4.75,345.84"/>
        <lane id=":J7_0_1" index="1" speed="13.89" length="8.20" shape="-1.48,353.67 -1.55,345.74"/>
        <lane id=":J7_0_2" index="2" speed="13.89" length="8.20" shape="-1.48,353.67 -0.99,351.21 0.12,349.66 1.21,348.11 1.65,345.65"/>
    </edge>
    <edge id=":J7_3" function="internal">
        <lane id=":J7_3_0" index="0" speed="13.89" length="8.32" shape="8.05,345.46 8.22,353.55"/>
        <lane id=":J7_3_1" index="1" speed="13.89" length="8.32" shape="4.85,345.55 5.02,353.59"/>
        <lane id=":J7_3_2" index="2" speed="13.89" length="8.32" shape="4.85,345.55 4.42,348.03 3.36,349.59 2.29,351.15 1.82,353.63"/>
    </edge>

    <edge id="-E0" from="J1" to="J0" priority="-1" shape="2.73,35.23 3.18,-0.09">
        <lane id="-E0_0" index="0" speed="13.89" length="35.32" shape="-5.27,35.13 -4.82,-0.19"/>
        <lane id="-E0_1" index="1" speed="13.89" length="35.32" shape="-2.07,35.17 -1.62,-0.15"/>
        <lane id="-E0_2" index="2" speed="13.89" length="35.32" shape="1.13,35.21 1.58,-0.11"/>
    </edge>
    <edge id="-E1" from="J2" to="J1" priority="-1" shape="44.72,66.59 11.36,56.91">
        <lane id="-E1_0" index="0" speed="13.89" length="33.39" shape="43.38,71.20 11.32,61.90"/>
        <lane id="-E1_1" index="1" speed="13.89" length="33.39" shape="44.27,68.13 12.21,58.82"/>
    </edge>
    <edge id="-E10" from="J11" to="J18" priority="-1" spreadType="center" shape="-4.76,609.80 -4.84,589.17">
        <lane id="-E10_0" index="0" speed="13.89" length="10.48" shape="-6.40,600.18 -6.44,589.70"/>
        <lane id="-E10_1" index="1" speed="13.89" length="10.48" shape="-3.20,600.17 -3.24,589.69"/>
    </edge>
    <edge id="-E10.28" from="J18" to="J10" priority="-1" spreadType="center" shape="-3.38,582.22 -3.88,379.99">
        <lane id="-E10.28_0" index="0" speed="13.89" length="197.64" shape="-6.58,581.70 -7.07,384.06"/>
        <lane id="-E10.28_1" index="1" speed="13.89" length="197.64" shape="-3.38,581.69 -3.87,384.06"/>
        <lane id="-E10.28_2" index="2" speed="13.89" length="197.64" shape="-0.18,581.68 -0.67,384.05"/>
    </edge>
    <edge id="-E11" from="J12" to="J10" priority="-1" spreadType="center" shape="40.51,375.03 2.86,375.26">
        <lane id="-E11_0" index="0" speed="13.89" length="26.06" shape="40.05,378.24 13.98,378.40"/>
        <lane id="-E11_1" index="1" speed="13.89" length="26.06" shape="40.03,375.04 13.97,375.20"/>
        <lane id="-E11_2" index="2" speed="13.89" length="26.06" shape="40.01,371.84 13.95,372.00"/>
    </edge>
    <edge id="-E12" from="J13" to="J10" priority="-1" spreadType="center" shape="-36.85,361.38 -3.59,361.24">
        <lane id="-E12_0" index="0" speed="13.89" length="23.88" shape="-36.64,359.78 -12.76,359.68"/>
        <lane id="-E12_1" index="1" speed="13.89" length="23.88" shape="-36.62,362.98 -12.75,362.88"/>
    </edge>
    <edge id="-E13" from="J14" to="J11" priority="-1">
        <lane id="-E13_0" index="0" speed="13.89" length="41.77" shape="-6.45,668.05 -6.68,626.28"/>
        <lane id="-E13_1" index="1" speed="13.89" length="41.77" shape="-3.25,668.04 -3.48,626.26"/>
        <lane id="-E13_2" index="2" speed="13.89" length="41.77" shape="-0.05,668.02 -0.28,626.25"/>
    </edge>
    <edge id="-E2" from="J3" to="J1" priority="-1" shape="-44.27,41.90 -10.51,51.51">
        <lane id="-E2_0" index="0" speed="13.89" length="32.07" shape="-42.08,34.21 -11.25,42.98"/>
        <lane id="-E2_1" index="1" speed="13.89" length="32.07" shape="-42.96,37.28 -12.11,46.06"/>
        <lane id="-E2_2" index="2" speed="13.89" length="32.07" shape="-43.83,40.36 -12.98,49.14"/>
    </edge>
    <edge id="-E3" from="J4" to="J1" priority="-1" shape="-1.20,202.76 0.61,55.51">
        <lane id="-E3_0" index="0" speed="13.89" length="136.48" shape="-9.20,202.66 -7.52,66.20"/>
        <lane id="-E3_1" index="1" speed="13.89" length="136.48" shape="-6.00,202.70 -4.32,66.23"/>
        <lane id="-E3_2" index="2" speed="13.89" length="136.48" shape="-2.80,202.74 -1.12,66.25"/>
    </edge>
    <edge id="-E4" from="J5" to="J4" priority="-1" shape="52.80,207.58 10.62,213.36">
        <lane id="-E4_0" index="0" speed="13.89" length="42.57" shape="53.45,212.34 11.27,218.12"/>
        <lane id="-E4_1" index="1" speed="13.89" length="42.57" shape="53.02,209.17 10.84,214.95"/>
    </edge>
    <edge id="-E5" from="J6" to="J4" priority="-1" shape="-58.83,219.88 -15.98,216.27">
        <lane id="-E5_0" index="0" speed="13.89" length="43.00" shape="-59.23,215.10 -16.38,211.49"/>
        <lane id="-E5_1" index="1" speed="13.89" length="43.00" shape="-58.96,218.29 -16.11,214.68"/>
    </edge>
    <edge id="-E6" from="J7" to="J4" priority="-1" shape="3.29,346.93 -0.04,233.98">
        <lane id="-E6_0" index="0" speed="13.89" length="111.56" shape="-4.75,345.84 -8.03,234.32"/>
        <lane id="-E6_1" index="1" speed="13.89" length="111.56" shape="-1.55,345.74 -4.83,234.23"/>
        <lane id="-E6_2" index="2" speed="13.89" length="111.56" shape="1.65,345.65 -1.64,234.14"/>
    </edge>
    <edge id="-E7" from="J8" to="J11" priority="-1" shape="49.72,606.42 8.58,610.55">
        <lane id="-E7_0" index="0" speed="13.89" length="35.99" shape="50.52,614.38 14.71,617.98"/>
        <lane id="-E7_1" index="1" speed="13.89" length="35.99" shape="50.20,611.20 14.39,614.79"/>
        <lane id="-E7_2" index="2" speed="13.89" length="35.99" shape="49.88,608.01 14.07,611.61"/>
    </edge>
    <edge id="-E8" from="J9" to="J11" priority="-1" shape="-42.26,622.19 -13.25,616.66">
        <lane id="-E8_0" index="0" speed="13.89" length="29.36" shape="-43.76,614.33 -14.91,608.83"/>
        <lane id="-E8_1" index="1" speed="13.89" length="29.36" shape="-43.16,617.47 -14.32,611.98"/>
        <lane id="-E8_2" index="2" speed="13.89" length="29.36" shape="-42.56,620.62 -13.72,615.12"/>
    </edge>
    <edge id="-E9" from="J10" to="J7" priority="-1" spreadType="center" shape="-2.93,370.74 -3.14,346.97">
        <lane id="-E9_0" index="0" speed="13.89" length="0.33" shape="-4.68,354.04 -4.68,353.71"/>
        <lane id="-E9_1" index="1" speed="13.89" length="0.33" shape="-1.48,354.01 -1.48,353.67"/>
    </edge>
    <edge id="E0" from="J0" to="J1" priority="-1" shape="3.18,-0.09 2.68,37.23">
        <lane id="E0_0" index="0" speed="13.89" length="35.32" shape="7.98,-0.03 7.51,35.29"/>
        <lane id="E0_1" index="1" speed="13.89" length="35.32" shape="4.78,-0.07 4.31,35.25"/>
    </edge>
    <edge id="E1" from="J1" to="J2" priority="-1" shape="11.32,56.87 44.72,66.59">
        <lane id="E1_0" index="0" speed="13.89" length="33.38" shape="14.90,49.58 46.96,58.91"/>
        <lane id="E1_1" index="1" speed="13.89" length="33.38" shape="14.01,52.65 46.06,61.98"/>
        <lane id="E1_2" index="2" speed="13.89" length="33.38" shape="13.11,55.73 45.17,65.05"/>
    </edge>
    <edge id="E10" from="J10" to="J15" priority="-1" spreadType="center" shape="4.22,380.02 4.40,490.85">
        <lane id="E10_0" index="0" speed="13.89" length="102.84" shape="5.83,384.04 5.99,486.88"/>
        <lane id="E10_1" index="1" speed="13.89" length="102.84" shape="2.63,384.04 2.79,486.89"/>
    </edge>
    <edge id="E10.112" from="J15" to="J17" priority="-1" spreadType="center">
        <lane id="E10.112_0" index="0" speed="13.89" length="83.97" shape="6.02,498.08 6.28,582.05"/>
        <lane id="E10.112_1" index="1" speed="13.89" length="83.97" shape="2.82,498.09 3.08,582.06"/>
    </edge>
    <edge id="E10.203" from="J17" to="J11" priority="-1" spreadType="center" shape="3.16,589.41 3.27,604.47">
        <lane id="E10.203_0" index="0" speed="13.89" length="10.09" shape="6.36,590.04 6.44,600.13"/>
        <lane id="E10.203_1" index="1" speed="13.89" length="10.09" shape="3.16,590.06 3.24,600.15"/>
        <lane id="E10.203_2" index="2" speed="13.89" length="10.09" shape="-0.04,590.08 0.04,600.16"/>
    </edge>
    <edge id="E11" from="J10" to="J12" priority="-1" spreadType="center" shape="3.17,365.67 40.69,365.51">
        <lane id="E11_0" index="0" speed="13.89" length="26.06" shape="13.91,362.42 39.97,362.31"/>
        <lane id="E11_1" index="1" speed="13.89" length="26.06" shape="13.92,365.62 39.98,365.51"/>
        <lane id="E11_2" index="2" speed="13.89" length="26.06" shape="13.94,368.82 39.99,368.71"/>
    </edge>
    <edge id="E12" from="J10" to="J13" priority="-1" spreadType="center" shape="-3.92,367.58 -36.92,367.76">
        <lane id="E12_0" index="0" speed="13.89" length="23.88" shape="-12.71,369.23 -36.59,369.36"/>
        <lane id="E12_1" index="1" speed="13.89" length="23.88" shape="-12.73,366.03 -36.61,366.16"/>
    </edge>
    <edge id="E13" from="J11" to="J14" priority="-1" shape="1.23,609.78 1.55,668.01">
        <lane id="E13_0" index="0" speed="13.89" length="41.77" shape="9.32,626.19 9.55,667.97"/>
        <lane id="E13_1" index="1" speed="13.89" length="41.77" shape="6.12,626.21 6.35,667.98"/>
        <lane id="E13_2" index="2" speed="13.89" length="41.77" shape="2.92,626.23 3.15,668.00"/>
    </edge>
    <edge id="E14" from="J16" to="J15" priority="-1">
        <lane id="E14_0" index="0" speed="13.89" length="5.18" shape="16.81,492.56 11.62,492.51"/>
    </edge>
    <edge id="E2" from="J1" to="J3" priority="-1" shape="-10.32,51.49 -44.27,41.90">
        <lane id="E2_0" index="0" speed="13.89" length="32.08" shape="-14.71,55.24 -45.57,46.52"/>
        <lane id="E2_1" index="1" speed="13.89" length="32.08" shape="-13.84,52.16 -44.70,43.44"/>
    </edge>
    <edge id="E3" from="J1" to="J4" priority="-1" shape="0.68,55.56 -1.20,202.62">
        <lane id="E3_0" index="0" speed="13.89" length="136.52" shape="5.34,66.31 3.60,202.82"/>
        <lane id="E3_1" index="1" speed="13.89" length="136.52" shape="2.14,66.28 0.40,202.78"/>
    </edge>
    <edge id="E4" from="J4" to="J5" priority="-1" shape="10.69,213.20 52.80,207.58">
        <lane id="E4_0" index="0" speed="13.89" length="42.48" shape="10.06,208.44 52.17,202.82"/>
        <lane id="E4_1" index="1" speed="13.89" length="42.48" shape="10.48,211.61 52.59,205.99"/>
    </edge>
    <edge id="E5" from="J4" to="J6" priority="-1" shape="-16.06,216.26 -58.83,219.88">
        <lane id="E5_0" index="0" speed="13.89" length="42.92" shape="-15.66,221.04 -58.43,224.66"/>
        <lane id="E5_1" index="1" speed="13.89" length="42.92" shape="-15.93,217.85 -58.70,221.47"/>
    </edge>
    <edge id="E6" from="J4" to="J7" priority="-1" shape="0.07,234.09 3.29,346.93">
        <lane id="E6_0" index="0" speed="13.89" length="111.55" shape="4.87,233.95 8.05,345.46"/>
        <lane id="E6_1" index="1" speed="13.89" length="111.55" shape="1.67,234.04 4.85,345.55"/>
    </edge>
    <edge id="E7" from="J11" to="J8" priority="-1" shape="8.76,610.49 26.53,608.72 49.72,606.42">
        <lane id="E7_0" index="0" speed="13.89" length="35.99" shape="13.44,605.20 26.06,603.94 49.25,601.64"/>
        <lane id="E7_1" index="1" speed="13.89" length="35.99" shape="13.75,608.38 26.37,607.13 49.56,604.83"/>
    </edge>
    <edge id="E8" from="J11" to="J9" priority="-1" shape="-13.08,616.68 -42.26,622.19">
        <lane id="E8_0" index="0" speed="13.89" length="29.35" shape="-12.53,621.46 -41.37,626.91"/>
        <lane id="E8_1" index="1" speed="13.89" length="29.35" shape="-13.12,618.32 -41.96,623.76"/>
    </edge>
    <edge id="E9" from="J7" to="J10" priority="-1" spreadType="center" shape="5.00,352.26 5.23,371.21">
        <lane id="E9_0" index="0" speed="13.89" length="0.36" shape="8.22,353.55 8.22,353.92"/>
        <lane id="E9_1" index="1" speed="13.89" length="0.36" shape="5.02,353.59 5.02,353.95"/>
        <lane id="E9_2" index="2" speed="13.89" length="0.36" shape="1.82,353.63 1.82,353.98"/>
    </edge>

    <junction id="J0" type="dead_end" x="3.18" y="-0.09" incLanes="-E0_0 -E0_1 -E0_2" intLanes="" shape="3.18,-0.09 9.58,-0.00 -6.42,-0.21"/>
    <junction id="J1" type="priority" x="2.68" y="48.17" incLanes="-E1_0 -E1_1 E0_0 E0_1 -E2_0 -E2_1 -E2_2 -E3_0 -E3_1 -E3_2" intLanes=":J1_0_0 :J1_1_0 :J1_1_1 :J1_3_0 :J1_4_0 :J1_5_0 :J1_5_1 :J1_7_0 :J1_8_0 :J1_9_0 :J1_9_1 :J1_9_2 :J1_12_0 :J1_13_0 :J1_14_0 :J1_14_1 :J1_14_2 :J1_18_0" shape="10.87,63.43 15.35,48.04 13.40,47.17 11.81,45.80 10.59,43.93 9.73,41.56 9.24,38.69 9.11,35.31 -6.87,35.11 -8.54,38.29 -10.81,41.44 -15.14,56.78 -13.27,57.52 -10.56,60.00 -9.22,63.79 -9.07,66.19 6.99,66.32 7.44,64.22 9.69,63.20" customShape="1">
        <request index="0"  response="000000000000000000" foes="000000000001100000" cont="0"/>
        <request index="1"  response="111111000000000000" foes="111111000011100000" cont="0"/>
        <request index="2"  response="111111000000000000" foes="111111000011100000" cont="0"/>
        <request index="3"  response="111100111000000000" foes="111100111011100000" cont="0"/>
        <request index="4"  response="000000111000000000" foes="000000111000000000" cont="0"/>
        <request index="5"  response="100001111000001111" foes="100001111000001111" cont="0"/>
        <request index="6"  response="100001111000001111" foes="100001111000001111" cont="0"/>
        <request index="7"  response="011101111000001110" foes="011101111000001110" cont="0"/>
        <request index="8"  response="000000000000000000" foes="011100000000000000" cont="0"/>
        <request index="9"  response="000000000000000000" foes="111100000011111000" cont="0"/>
        <request index="10" response="000000000000000000" foes="111100000011111000" cont="0"/>
        <request index="11" response="000000000000000000" foes="111100000011111000" cont="0"/>
        <request index="12" response="000000000000000000" foes="111100000011100110" cont="0"/>
        <request index="13" response="000000000000000000" foes="000000000000000110" cont="0"/>
        <request index="14" response="000001111100000000" foes="000001111110001110" cont="0"/>
        <request index="15" response="000001111100000000" foes="000001111110001110" cont="0"/>
        <request index="16" response="000001111100000000" foes="000001111110001110" cont="0"/>
        <request index="17" response="000001111000000000" foes="000001111001101110" cont="1"/>
    </junction>