<?xml version="1.0" encoding="UTF-8"?>

<!-- generated on 2022-05-30 21:06:05 by Eclipse SUMO netedit Version 1.13.0
<configuration xmlns:xsi="http://www.w3.org/2001/XMLSchema-instance" xsi:noNamespaceSchemaLocation="http://sumo.dlr.de/xsd/netconvertConfiguration.xsd">

    <input>
        <sumo-net-file value="scenarios/NGSIM/peachtree/map.net.xml"/>
    </input>

    <output>
        <output-file value="scenarios/NGSIM/peachtree/map.net.xml"/>
    </output>

    <processing>
        <geometry.min-radius.fix.railways value="false"/>
        <geometry.max-grade.fix value="false"/>
        <offset.disable-normalization value="true"/>
        <lefthand value="false"/>
    </processing>

    <junctions>
        <no-turnarounds value="true"/>
        <junctions.corner-detail value="5"/>
        <junctions.limit-turn-speed value="5.5"/>
        <rectangular-lane-cut value="false"/>
    </junctions>

    <pedestrian>
        <walkingareas value="false"/>
    </pedestrian>

    <report>
        <aggregate-warnings value="5"/>
    </report>

</configuration>
-->

<net version="1.9" junctionCornerDetail="5" limitTurnSpeed="5.50" xmlns:xsi="http://www.w3.org/2001/XMLSchema-instance" xsi:noNamespaceSchemaLocation="http://sumo.dlr.de/xsd/net_file.xsd">

    <location netOffset="0.00,0.00" convBoundary="-58.83,0.00,52.80,668.01" origBoundary="-10000000000.00,-10000000000.00,10000000000.00,10000000000.00" projParameter="!"/>

    <edge id=":J1_0" function="internal">
        <lane id=":J1_0_0" index="0" speed="6.06" length="9.07" shape="11.26,66.28 8.70,66.01 6.86,66.69 5.74,68.30 5.36,70.85"/>
    </edge>
    <edge id=":J1_1" function="internal">
        <lane id=":J1_1_0" index="0" speed="13.89" length="25.86" shape="11.26,66.28 -13.96,60.74"/>
        <lane id=":J1_1_1" index="1" speed="13.89" length="25.86" shape="12.04,63.17 -13.26,57.62"/>
    </edge>
    <edge id=":J1_3" function="internal">
        <lane id=":J1_3_0" index="0" speed="11.42" length="24.31" shape="12.04,63.17 7.26,60.92 3.84,56.90 1.77,51.11 1.06,43.55"/>
    </edge>
    <edge id=":J1_4" function="internal">
        <lane id=":J1_4_0" index="0" speed="8.63" length="13.49" shape="7.46,43.53 7.91,47.39 9.21,50.39 11.37,52.54 14.38,53.84"/>
    </edge>
    <edge id=":J1_5" function="internal">
        <lane id=":J1_5_0" index="0" speed="13.89" length="27.38" shape="7.46,43.53 5.36,70.85"/>
        <lane id=":J1_5_1" index="1" speed="13.89" length="27.38" shape="4.26,43.54 2.16,70.82"/>
    </edge>
    <edge id=":J1_7" function="internal">
        <lane id=":J1_7_0" index="0" speed="10.10" length="27.20" shape="4.26,43.54 3.19,51.17 -0.09,56.06 -5.57,58.21 -13.26,57.62"/>
    </edge>
    <edge id=":J1_8" function="internal">
        <lane id=":J1_8_0" index="0" speed="6.08" length="9.07" shape="-11.18,48.27 -8.61,48.47 -6.79,47.75 -5.69,46.12 -5.34,43.57"/>
    </edge>
    <edge id=":J1_9" function="internal">
        <lane id=":J1_9_0" index="0" speed="13.89" length="26.08" shape="-11.18,48.27 14.38,53.84"/>
        <lane id=":J1_9_1" index="1" speed="13.89" length="26.08" shape="-11.87,51.39 13.60,56.94"/>
        <lane id=":J1_9_2" index="2" speed="13.89" length="26.08" shape="-12.57,54.51 12.82,60.05"/>
    </edge>
    <edge id=":J1_12" function="internal">
        <lane id=":J1_12_0" index="0" speed="11.18" length="24.03" shape="-12.57,54.51 -6.09,56.78 -1.47,60.25 1.28,64.93 2.16,70.82"/>
    </edge>
    <edge id=":J1_13" function="internal">
        <lane id=":J1_13_0" index="0" speed="8.34" length="13.00" shape="-7.51,70.74 -7.88,66.91 -9.09,63.97 -11.11,61.91 -13.96,60.74"/>
    </edge>
    <edge id=":J1_14" function="internal">
        <lane id=":J1_14_0" index="0" speed="13.89" length="27.29" shape="-7.51,70.74 -5.34,43.57"/>
        <lane id=":J1_14_1" index="1" speed="13.89" length="27.29" shape="-4.31,70.77 -2.14,43.56"/>
        <lane id=":J1_14_2" index="2" speed="13.89" length="27.29" shape="-1.11,70.79 1.06,43.55"/>
    </edge>
    <edge id=":J1_17" function="internal">
        <lane id=":J1_17_0" index="0" speed="8.97" length="2.59" shape="-1.11,70.79 -0.72,68.23"/>
    </edge>
    <edge id=":J1_18" function="internal">
        <lane id=":J1_18_0" index="0" speed="8.97" length="18.80" shape="-0.72,68.23 -0.19,64.79 2.43,61.00 6.77,59.42 12.82,60.05"/>
    </edge>
    <edge id=":J10_0" function="internal">
        <lane id=":J10_0_0" index="0" speed="8.74" length="17.19" shape="-7.07,384.07 -7.44,377.57 -8.50,372.92 -10.26,370.14 -12.71,369.23"/>
    </edge>
    <edge id=":J10_1" function="internal">
        <lane id=":J10_1_0" index="0" speed="13.89" length="30.14" shape="-7.07,384.07 -4.68,354.04"/>
        <lane id=":J10_1_1" index="1" speed="13.89" length="30.14" shape="-3.87,384.06 -1.48,354.01"/>
    </edge>
    <edge id=":J10_3" function="internal">
        <lane id=":J10_3_0" index="0" speed="11.28" length="13.14" shape="-3.87,384.06 -2.77,376.02 -0.26,371.68"/>
        <lane id=":J10_3_1" index="1" speed="10.28" length="5.04" shape="-0.67,384.06 0.01,379.06"/>
    </edge>
    <edge id=":J10_18" function="internal">
        <lane id=":J10_18_0" index="0" speed="11.28" length="16.07" shape="-0.26,371.68 0.56,370.27 6.12,366.81 13.92,365.62"/>
    </edge>
    <edge id=":J10_19" function="internal">
        <lane id=":J10_19_0" index="0" speed="10.28" length="19.02" shape="0.01,379.06 0.23,377.42 2.96,372.66 7.53,369.80 13.94,368.82"/>
    </edge>
    <edge id=":J10_5" function="internal">
        <lane id=":J10_5_0" index="0" speed="7.18" length="11.18" shape="13.98,378.40 10.41,378.77 7.86,379.83 6.33,381.59 5.83,384.04"/>
    </edge>
    <edge id=":J10_6" function="internal">
        <lane id=":J10_6_0" index="0" speed="13.89" length="28.59" shape="13.98,378.40 5.26,376.99 -0.91,373.82 -6.31,370.65 -12.71,369.23"/>
        <lane id=":J10_6_1" index="1" speed="13.89" length="28.59" shape="13.97,375.20 5.25,373.79 -0.92,370.62 -6.32,367.45 -12.73,366.03"/>
    </edge>
    <edge id=":J10_8" function="internal">
        <lane id=":J10_8_0" index="0" speed="10.86" length="26.95" shape="13.95,372.00 7.26,370.91 2.46,367.55 -0.45,361.91 -1.48,354.01"/>
    </edge>
    <edge id=":J10_9" function="internal">
        <lane id=":J10_9_0" index="0" speed="7.28" length="11.50" shape="8.22,353.92 8.61,357.65 9.69,360.31 11.46,361.90 13.91,362.42"/>
        <lane id=":J10_9_1" index="1" speed="8.64" length="16.61" shape="5.02,353.95 5.63,359.07 7.32,362.72 10.08,364.91 13.92,365.62"/>
    </edge>
    <edge id=":J10_11" function="internal">
        <lane id=":J10_11_0" index="0" speed="13.89" length="30.09" shape="5.02,353.95 5.83,384.04"/>
        <lane id=":J10_11_1" index="1" speed="13.89" length="30.09" shape="1.82,353.98 2.63,384.05"/>
    </edge>
    <edge id=":J10_13" function="internal">
        <lane id=":J10_13_0" index="0" speed="9.71" length="5.81" shape="1.82,353.98 0.97,359.22 0.67,359.63"/>
    </edge>
    <edge id=":J10_20" function="internal">
        <lane id=":J10_20_0" index="0" speed="9.71" length="15.70" shape="0.67,359.63 -1.74,362.98 -6.31,365.24 -12.73,366.03"/>
    </edge>
    <edge id=":J10_14" function="internal">
        <lane id=":J10_14_0" index="0" speed="7.14" length="11.14" shape="-12.76,359.68 -9.21,359.31 -6.67,358.25 -5.16,356.49 -4.68,354.04"/>
    </edge>
    <edge id=":J10_15" function="internal">
        <lane id=":J10_15_0" index="0" speed="13.89" length="27.51" shape="-12.76,359.68 -6.30,360.60 -0.80,362.66 5.39,364.71 13.92,365.62"/>
        <lane id=":J10_15_1" index="1" speed="13.89" length="27.51" shape="-12.75,362.88 -6.28,363.80 -0.78,365.86 5.41,367.91 13.94,368.82"/>
    </edge>
    <edge id=":J10_17" function="internal">
        <lane id=":J10_17_0" index="0" speed="11.34" length="29.62" shape="-12.75,362.88 -6.04,364.18 -1.24,368.14 1.65,374.76 2.63,384.05"/>
    </edge>
    <edge id=":J11_0" function="internal">
        <lane id=":J11_0_0" index="0" speed="6.15" length="9.06" shape="-6.68,626.28 -7.06,623.76 -8.16,622.12 -9.98,621.35 -12.53,621.46"/>
    </edge>
    <edge id=":J11_1" function="internal">
        <lane id=":J11_1_0" index="0" speed="13.89" length="26.10" shape="-6.68,626.28 -6.54,600.18"/>
        <lane id=":J11_1_1" index="1" speed="13.89" length="26.10" shape="-3.48,626.26 -3.34,600.17"/>
        <lane id=":J11_1_2" index="2" speed="13.89" length="26.10" shape="-0.28,626.25 -0.14,600.16"/>
    </edge>
    <edge id=":J11_4" function="internal">
        <lane id=":J11_4_0" index="0" speed="10.92" length="25.37" shape="-0.28,626.25 0.57,618.96 3.19,613.55 7.58,610.03 13.76,608.39"/>
    </edge>
    <edge id=":J11_5" function="internal">
        <lane id=":J11_5_0" index="0" speed="7.34" length="10.91" shape="14.71,617.98 12.34,618.69 10.65,620.30 9.64,622.80 9.32,626.19"/>
    </edge>
    <edge id=":J11_6" function="internal">
        <lane id=":J11_6_0" index="0" speed="13.89" length="27.60" shape="14.71,617.98 -12.53,621.46"/>
        <lane id=":J11_6_1" index="1" speed="13.89" length="27.60" shape="14.39,614.79 -13.12,618.32"/>
    </edge>
    <edge id=":J11_8" function="internal">
        <lane id=":J11_8_0" index="0" speed="9.36" length="6.07" shape="14.08,611.61 8.01,611.43"/>
    </edge>
    <edge id=":J11_17" function="internal">
        <lane id=":J11_17_0" index="0" speed="9.36" length="15.21" shape="8.01,611.43 7.87,611.42 3.43,609.46 0.77,605.70 -0.14,600.16"/>
    </edge>
    <edge id=":J11_9" function="internal">
        <lane id=":J11_9_0" index="0" speed="6.64" length="10.14" shape="6.34,600.14 6.78,602.62 8.12,604.29 10.34,605.15 13.44,605.20"/>
    </edge>
    <edge id=":J11_10" function="internal">
        <lane id=":J11_10_0" index="0" speed="13.89" length="26.07" shape="6.34,600.14 6.12,626.21"/>
        <lane id=":J11_10_1" index="1" speed="13.89" length="26.07" shape="3.14,600.15 2.92,626.23"/>
    </edge>
    <edge id=":J11_12" function="internal">
        <lane id=":J11_12_0" index="0" speed="11.64" length="26.80" shape="3.14,600.15 2.13,606.94 -0.91,612.24 -6.00,616.03 -13.12,618.32"/>
    </edge>
    <edge id=":J11_13" function="internal">
        <lane id=":J11_13_0" index="0" speed="8.32" length="13.22" shape="-14.91,608.83 -11.24,607.69 -8.62,605.87 -7.05,603.36 -6.54,600.18"/>
    </edge>
    <edge id=":J11_14" function="internal">
        <lane id=":J11_14_0" index="0" speed="13.89" length="28.46" shape="-14.91,608.83 -5.96,607.28 0.80,606.38 6.78,605.81 13.44,605.20"/>
        <lane id=":J11_14_1" index="1" speed="13.89" length="28.46" shape="-14.32,611.98 -5.47,610.44 1.20,609.56 7.13,608.99 13.76,608.39"/>
    </edge>
    <edge id=":J11_16" function="internal">
        <lane id=":J11_16_0" index="0" speed="9.61" length="7.85" shape="-13.72,615.12 -6.47,614.63 -5.92,614.81"/>
    </edge>
    <edge id=":J11_18" function="internal">
        <lane id=":J11_18_0" index="0" speed="9.61" length="15.99" shape="-5.92,614.81 -1.28,616.32 1.85,620.19 2.92,626.23"/>
    </edge>
    <edge id=":J4_0" function="internal">
        <lane id=":J4_0_0" index="0" speed="8.56" length="17.13" shape="-7.34,234.27 -7.93,228.26 -9.40,224.05 -11.75,221.64 -14.96,221.04"/>
    </edge>
    <edge id=":J4_1" function="internal">
        <lane id=":J4_1_0" index="0" speed="13.89" length="31.50" shape="-7.34,234.27 -8.50,202.70"/>
        <lane id=":J4_1_1" index="1" speed="13.89" length="31.50" shape="-4.14,234.20 -5.30,202.72"/>
        <lane id=":J4_1_2" index="2" speed="13.89" length="31.50" shape="-0.94,234.13 -2.10,202.75"/>
    </edge>
    <edge id=":J4_4" function="internal">
        <lane id=":J4_4_0" index="0" speed="11.56" length="7.89" shape="-0.94,234.13 -0.44,226.25"/>
    </edge>
    <edge id=":J4_17" function="internal">
        <lane id=":J4_17_0" index="0" speed="11.56" length="20.22" shape="-0.44,226.25 -0.36,224.92 1.85,218.10 5.69,213.66 11.17,211.61"/>
    </edge>
    <edge id=":J4_5" function="internal">
        <lane id=":J4_5_0" index="0" speed="9.47" length="18.51" shape="11.98,218.11 9.05,219.46 7.01,222.55 5.84,227.39 5.57,233.98"/>
    </edge>
    <edge id=":J4_6" function="internal">
        <lane id=":J4_6_0" index="0" speed="13.89" length="27.01" shape="11.98,218.11 -14.96,221.04"/>
        <lane id=":J4_6_1" index="1" speed="13.89" length="27.01" shape="11.54,214.94 -15.23,217.85"/>
    </edge>
    <edge id=":J4_8" function="internal">
        <lane id=":J4_8_0" index="0" speed="9.28" length="21.64" shape="11.54,214.94 5.53,214.90 1.26,212.85 -1.29,208.80 -2.10,202.75"/>
    </edge>
    <edge id=":J4_9" function="internal">
        <lane id=":J4_9_0" index="0" speed="6.54" length="10.13" shape="4.30,202.80 4.68,205.60 5.88,207.47 7.90,208.42 10.74,208.44"/>
    </edge>
    <edge id=":J4_10" function="internal">
        <lane id=":J4_10_0" index="0" speed="13.89" length="31.26" shape="4.30,202.80 5.57,233.98"/>
        <lane id=":J4_10_1" index="1" speed="13.89" length="31.26" shape="1.10,202.77 2.37,234.05"/>
    </edge>
    <edge id=":J4_12" function="internal">
        <lane id=":J4_12_0" index="0" speed="10.79" length="3.44" shape="1.10,202.77 0.51,206.16"/>
    </edge>
    <edge id=":J4_18" function="internal">
        <lane id=":J4_18_0" index="0" speed="10.79" length="21.39" shape="0.51,206.16 0.04,208.86 -3.04,213.41 -8.13,216.41 -15.23,217.85"/>
    </edge>
    <edge id=":J4_13" function="internal">
        <lane id=":J4_13_0" index="0" speed="7.85" length="12.68" shape="-15.68,211.49 -12.56,210.72 -10.32,208.99 -8.97,206.32 -8.50,202.70"/>
    </edge>
    <edge id=":J4_14" function="internal">
        <lane id=":J4_14_0" index="0" speed="13.89" length="26.68" shape="-15.68,211.49 10.74,208.44"/>
        <lane id=":J4_14_1" index="1" speed="13.89" length="26.68" shape="-15.41,214.68 11.17,211.61"/>
    </edge>
    <edge id=":J4_16" function="internal">
        <lane id=":J4_16_0" index="0" speed="11.24" length="30.33" shape="-15.41,214.68 -7.81,215.35 -2.31,218.80 1.08,225.04 2.37,234.05"/>
    </edge>
    <edge id=":J7_0" function="internal">
        <lane id=":J7_0_0" index="0" speed="13.89" length="8.23" shape="-4.68,353.71 -4.74,345.79"/>
        <lane id=":J7_0_1" index="1" speed="13.89" length="8.23" shape="-1.48,353.67 -1.54,345.71"/>
        <lane id=":J7_0_2" index="2" speed="13.89" length="8.23" shape="-1.48,353.67 -0.99,351.20 0.11,349.65 1.21,348.11 1.66,345.64"/>
    </edge>
    <edge id=":J7_3" function="internal">
        <lane id=":J7_3_0" index="0" speed="13.89" length="8.30" shape="8.06,345.49 8.22,353.55"/>
        <lane id=":J7_3_1" index="1" speed="13.89" length="8.30" shape="4.86,345.56 5.02,353.59"/>
        <lane id=":J7_3_2" index="2" speed="13.89" length="8.30" shape="4.86,345.56 4.42,348.04 3.35,349.60 2.28,351.16 1.82,353.63"/>
    </edge>

    <edge id="-E0" from="J1" to="J0" priority="-1">
        <lane id="-E0_0" index="0" speed="13.89" length="43.54" shape="-5.34,43.57 -5.50,0.03"/>
        <lane id="-E0_1" index="1" speed="13.89" length="43.54" shape="-2.14,43.56 -2.30,0.02"/>
        <lane id="-E0_2" index="2" speed="13.89" length="43.54" shape="1.06,43.55 0.90,0.01"/>
    </edge>
    <edge id="-E1" from="J2" to="J1" priority="-1" shape="44.62,69.68 9.34,60.85">
        <lane id="-E1_0" index="0" speed="13.89" length="33.19" shape="43.45,74.34 11.26,66.28"/>
        <lane id="-E1_1" index="1" speed="13.89" length="33.19" shape="44.23,71.23 12.04,63.17"/>
    </edge>
    <edge id="-E10" from="J11" to="J10" priority="-1" spreadType="center" shape="-3.31,610.28 -3.88,379.99">
        <lane id="-E10_0" index="0" speed="13.89" length="216.10" shape="-6.54,600.18 -7.07,384.07"/>
        <lane id="-E10_1" index="1" speed="13.89" length="216.10" shape="-3.34,600.17 -3.87,384.06"/>
        <lane id="-E10_2" index="2" speed="13.89" length="216.10" shape="-0.14,600.16 -0.67,384.06"/>
    </edge>
    <edge id="-E11" from="J12" to="J10" priority="-1" spreadType="center" shape="40.51,375.03 2.86,375.26">
        <lane id="-E11_0" index="0" speed="13.89" length="26.06" shape="40.05,378.24 13.98,378.40"/>
        <lane id="-E11_1" index="1" speed="13.89" length="26.06" shape="40.03,375.04 13.97,375.20"/>
        <lane id="-E11_2" index="2" speed="13.89" length="26.06" shape="40.01,371.84 13.95,372.00"/>
    </edge>
    <edge id="-E12" from="J13" to="J10" priority="-1" spreadType="center" shape="-36.85,361.38 -3.59,361.24">
        <lane id="-E12_0" index="0" speed="13.89" length="23.88" shape="-36.64,359.78 -12.76,359.68"/>
        <lane id="-E12_1" index="1" speed="13.89" length="23.88" shape="-36.62,362.98 -12.75,362.88"/>
    </edge>
    <edge id="-E13" from="J14" to="J11" priority="-1">
        <lane id="-E13_0" index="0" speed="13.89" length="41.77" shape="-6.45,668.05 -6.68,626.28"/>
        <lane id="-E13_1" index="1" speed="13.89" length="41.77" shape="-3.25,668.04 -3.48,626.26"/>
        <lane id="-E13_2" index="2" speed="13.89" length="41.77" shape="-0.05,668.02 -0.28,626.25"/>
    </edge>
    <edge id="-E2" from="J3" to="J1" priority="-1" shape="-44.26,49.06 -10.26,56.67">
        <lane id="-E2_0" index="0" speed="13.89" length="32.11" shape="-42.51,41.25 -11.18,48.27"/>
        <lane id="-E2_1" index="1" speed="13.89" length="32.11" shape="-43.21,44.38 -11.87,51.39"/>
        <lane id="-E2_2" index="2" speed="13.89" length="32.11" shape="-43.91,47.50 -12.57,54.51"/>
    </edge>
    <edge id="-E3" from="J4" to="J1" priority="-1" shape="-0.50,202.76 0.61,55.51">
        <lane id="-E3_0" index="0" speed="13.89" length="131.96" shape="-8.50,202.70 -7.51,70.74"/>
        <lane id="-E3_1" index="1" speed="13.89" length="131.96" shape="-5.30,202.72 -4.31,70.77"/>
        <lane id="-E3_2" index="2" speed="13.89" length="131.96" shape="-2.10,202.75 -1.11,70.79"/>
    </edge>
    <edge id="-E4" from="J5" to="J4" priority="-1" shape="52.80,207.58 11.32,213.36">
        <lane id="-E4_0" index="0" speed="13.89" length="41.88" shape="53.46,212.33 11.98,218.11"/>
        <lane id="-E4_1" index="1" speed="13.89" length="41.88" shape="53.02,209.16 11.54,214.94"/>
    </edge>
    <edge id="-E5" from="J6" to="J4" priority="-1" shape="-58.83,219.88 -15.28,216.27">
        <lane id="-E5_0" index="0" speed="13.89" length="43.70" shape="-59.23,215.10 -15.68,211.49"/>
        <lane id="-E5_1" index="1" speed="13.89" length="43.70" shape="-58.96,218.29 -15.41,214.68"/>
    </edge>
    <edge id="-E6" from="J7" to="J4" priority="-1" shape="3.29,346.93 0.66,233.98">
        <lane id="-E6_0" index="0" speed="13.89" length="111.54" shape="-4.74,345.79 -7.34,234.27"/>
        <lane id="-E6_1" index="1" speed="13.89" length="111.54" shape="-1.54,345.71 -4.14,234.20"/>
        <lane id="-E6_2" index="2" speed="13.89" length="111.54" shape="1.66,345.64 -0.94,234.13"/>
    </edge>
    <edge id="-E7" from="J8" to="J11" priority="-1" shape="49.72,606.42 8.58,610.55">
        <lane id="-E7_0" index="0" speed="13.89" length="35.99" shape="50.52,614.38 14.71,617.98"/>
        <lane id="-E7_1" index="1" speed="13.89" length="35.99" shape="50.20,611.20 14.39,614.79"/>
        <lane id="-E7_2" index="2" speed="13.89" length="35.99" shape="49.88,608.01 14.08,611.61"/>
    </edge>
    <edge id="-E8" from="J9" to="J11" priority="-1" shape="-42.26,622.19 -13.25,616.66">
        <lane id="-E8_0" index="0" speed="13.89" length="29.36" shape="-43.76,614.33 -14.91,608.83"/>
        <lane id="-E8_1" index="1" speed="13.89" length="29.36" shape="-43.16,617.47 -14.32,611.98"/>
        <lane id="-E8_2" index="2" speed="13.89" length="29.36" shape="-42.56,620.62 -13.72,615.12"/>
    </edge>
    <edge id="-E9" from="J10" to="J7" priority="-1" spreadType="center" shape="-2.93,370.74 -3.14,346.97">
        <lane id="-E9_0" index="0" speed="13.89" length="0.33" shape="-4.68,354.04 -4.68,353.71"/>
        <lane id="-E9_1" index="1" speed="13.89" length="0.33" shape="-1.48,354.01 -1.48,353.67"/>
    </edge>
    <edge id="E0" from="J0" to="J1" priority="-1">
        <lane id="E0_0" index="0" speed="13.89" length="43.54" shape="7.30,-0.02 7.46,43.53"/>
        <lane id="E0_1" index="1" speed="13.89" length="43.54" shape="4.10,-0.01 4.26,43.54"/>
    </edge>
    <edge id="E1" from="J1" to="J2" priority="-1" shape="9.42,60.84 44.62,69.68">
        <lane id="E1_0" index="0" speed="13.89" length="33.19" shape="14.38,53.84 46.57,61.92"/>
        <lane id="E1_1" index="1" speed="13.89" length="33.19" shape="13.60,56.94 45.79,65.02"/>
        <lane id="E1_2" index="2" speed="13.89" length="33.19" shape="12.82,60.05 45.01,68.13"/>
    </edge>
    <edge id="E10" from="J10" to="J11" priority="-1" spreadType="center" shape="4.22,380.02 4.76,610.66">
        <lane id="E10_0" index="0" speed="13.89" length="216.10" shape="5.83,384.04 6.34,600.14"/>
        <lane id="E10_1" index="1" speed="13.89" length="216.10" shape="2.63,384.05 3.14,600.15"/>
    </edge>
    <edge id="E11" from="J10" to="J12" priority="-1" spreadType="center" shape="3.17,365.67 40.69,365.51">
        <lane id="E11_0" index="0" speed="13.89" length="26.06" shape="13.91,362.42 39.97,362.31"/>
        <lane id="E11_1" index="1" speed="13.89" length="26.06" shape="13.92,365.62 39.98,365.51"/>
        <lane id="E11_2" index="2" speed="13.89" length="26.06" shape="13.94,368.82 39.99,368.71"/>
    </edge>
    <edge id="E12" from="J10" to="J13" priority="-1" spreadType="center" shape="-3.92,367.58 -36.92,367.76">
        <lane id="E12_0" index="0" speed="13.89" length="23.88" shape="-12.71,369.23 -36.59,369.36"/>
        <lane id="E12_1" index="1" speed="13.89" length="23.88" shape="-12.73,366.03 -36.61,366.16"/>
    </edge>
    <edge id="E13" from="J11" to="J14" priority="-1" shape="1.23,609.78 1.55,668.01">
        <lane id="E13_0" index="0" speed="13.89" length="41.77" shape="9.32,626.19 9.55,667.97"/>
        <lane id="E13_1" index="1" speed="13.89" length="41.77" shape="6.12,626.21 6.35,667.98"/>
        <lane id="E13_2" index="2" speed="13.89" length="41.77" shape="2.92,626.23 3.15,668.00"/>
    </edge>
    <edge id="E2" from="J1" to="J3" priority="-1" shape="-10.39,56.62 -44.26,49.06">
        <lane id="E2_0" index="0" speed="13.89" length="32.12" shape="-13.96,60.74 -45.31,53.74"/>
        <lane id="E2_1" index="1" speed="13.89" length="32.12" shape="-13.26,57.62 -44.61,50.62"/>
    </edge>
    <edge id="E3" from="J1" to="J4" priority="-1" shape="0.68,55.56 -0.50,202.62">
        <lane id="E3_0" index="0" speed="13.89" length="131.95" shape="5.36,70.85 4.30,202.80"/>
        <lane id="E3_1" index="1" speed="13.89" length="131.95" shape="2.16,70.82 1.10,202.77"/>
    </edge>
    <edge id="E4" from="J4" to="J5" priority="-1" shape="11.39,213.20 52.80,207.58">
        <lane id="E4_0" index="0" speed="13.89" length="41.79" shape="10.74,208.44 52.15,202.82"/>
        <lane id="E4_1" index="1" speed="13.89" length="41.79" shape="11.17,211.61 52.58,205.99"/>
    </edge>
    <edge id="E5" from="J4" to="J6" priority="-1" shape="-15.36,216.26 -58.83,219.88">
        <lane id="E5_0" index="0" speed="13.89" length="43.62" shape="-14.96,221.04 -58.43,224.66"/>
        <lane id="E5_1" index="1" speed="13.89" length="43.62" shape="-15.23,217.85 -58.70,221.47"/>
    </edge>
    <edge id="E6" from="J4" to="J7" priority="-1" shape="0.77,234.09 3.29,346.93">
        <lane id="E6_0" index="0" speed="13.89" length="111.54" shape="5.57,233.98 8.06,345.49"/>
        <lane id="E6_1" index="1" speed="13.89" length="111.54" shape="2.37,234.05 4.86,345.56"/>
    </edge>
    <edge id="E7" from="J11" to="J8" priority="-1" shape="8.76,610.49 49.72,606.42">
        <lane id="E7_0" index="0" speed="13.89" length="35.98" shape="13.44,605.20 49.25,601.64"/>
        <lane id="E7_1" index="1" speed="13.89" length="35.98" shape="13.76,608.39 49.56,604.83"/>
    </edge>
    <edge id="E8" from="J11" to="J9" priority="-1" shape="-13.08,616.68 -42.26,622.19">
        <lane id="E8_0" index="0" speed="13.89" length="29.35" shape="-12.53,621.46 -41.37,626.91"/>
        <lane id="E8_1" index="1" speed="13.89" length="29.35" shape="-13.12,618.32 -41.96,623.76"/>
    </edge>
    <edge id="E9" from="J7" to="J10" priority="-1" spreadType="center" shape="5.00,352.26 5.23,371.21">
        <lane id="E9_0" index="0" speed="13.89" length="0.36" shape="8.22,353.55 8.22,353.92"/>
        <lane id="E9_1" index="1" speed="13.89" length="0.36" shape="5.02,353.59 5.02,353.95"/>
        <lane id="E9_2" index="2" speed="13.89" length="0.36" shape="1.82,353.63 1.82,353.98"/>
    </edge>

    <junction id="J0" type="dead_end" x="2.50" y="0.00" incLanes="-E0_0 -E0_1 -E0_2" intLanes="" shape="2.50,0.00 -7.10,0.04 2.50,0.00"/>
    <junction id="J1" type="priority" x="2.68" y="48.17" incLanes="-E1_0 -E1_1 E0_0 E0_1 -E2_0 -E2_1 -E2_2 -E3_0 -E3_1 -E3_2" intLanes=":J1_0_0 :J1_1_0 :J1_1_1 :J1_3_0 :J1_4_0 :J1_5_0 :J1_5_1 :J1_7_0 :J1_8_0 :J1_9_0 :J1_9_1 :J1_9_2 :J1_12_0 :J1_13_0 :J1_14_0 :J1_14_1 :J1_14_2 :J1_18_0" shape="10.87,67.83 14.77,52.29 11.61,50.68 9.71,47.76 9.23,45.80 9.06,43.52 -6.94,43.58 -8.81,45.45 -10.83,46.71 -14.31,62.30 -11.39,63.76 -9.66,66.57 -9.11,70.73 6.96,70.86 7.41,68.74 9.68,67.64" customShape="1">
        <request index="0"  response="000000000000000000" foes="000000000001100000" cont="0"/>
        <request index="1"  response="111111000000000000" foes="111111000011100000" cont="0"/>
        <request index="2"  response="111111000000000000" foes="111111000011100000" cont="0"/>
        <request index="3"  response="111100111000000000" foes="111100111011100000" cont="0"/>
        <request index="4"  response="000000111000000000" foes="000000111000000000" cont="0"/>
        <request index="5"  response="100001111000001111" foes="100001111000001111" cont="0"/>
        <request index="6"  response="100001111000001111" foes="100001111000001111" cont="0"/>
        <request index="7"  response="011101111000001110" foes="011101111000001110" cont="0"/>
        <request index="8"  response="000000000000000000" foes="011100000000000000" cont="0"/>
        <request index="9"  response="000000000000000000" foes="111100000011111000" cont="0"/>
        <request index="10" response="000000000000000000" foes="111100000011111000" cont="0"/>
        <request index="11" response="000000000000000000" foes="111100000011111000" cont="0"/>
        <request index="12" response="000000000000000000" foes="111100000011100110" cont="0"/>
        <request index="13" response="000000000000000000" foes="000000000000000110" cont="0"/>
        <request index="14" response="000001111100000000" foes="000001111110001110" cont="0"/>
        <request index="15" response="000001111100000000" foes="000001111110001110" cont="0"/>
        <request index="16" response="000001111100000000" foes="000001111110001110" cont="0"/>
        <request index="17" response="000001111000000000" foes="000001111001101110" cont="1"/>
    </junction>
    <junction id="J10" type="priority" x="3.08" y="370.47" incLanes="-E10_0 -E10_1 -E10_2 -E11_0 -E11_1 -E11_2 E9_0 E9_1 E9_2 -E12_0 -E12_1" intLanes=":J10_0_0 :J10_1_0 :J10_1_1 :J10_18_0 :J10_19_0 :J10_5_0 :J10_6_0 :J10_6_1 :J10_8_0 :J10_9_0 :J10_9_1 :J10_11_0 :J10_11_1 :J10_20_0 :J10_14_0 :J10_15_0 :J10_15_1 :J10_17_0" shape="-8.67,384.07 7.43,384.04 8.15,381.81 9.06,381.03 10.34,380.46 11.98,380.12 13.99,380.00 13.90,360.82 11.67,360.06 10.88,359.10 10.31,357.76 9.96,356.03 9.82,353.91 -6.28,354.05 -6.98,356.28 -7.88,357.06 -9.15,357.62 -10.78,357.96 -12.77,358.08 -12.70,370.83 -10.48,372.29 -9.69,374.13 -9.13,376.71 -8.79,380.02">
        <request index="0"  response="000000000000000000" foes="000000000011000000" cont="0"/>
        <request index="1"  response="000000000000000000" foes="111110000111000000" cont="0"/>
        <request index="2"  response="000000000000000000" foes="111110000111000000" cont="0"/>
        <request index="3"  response="000001111000000000" foes="111001111111000000" cont="1"/>
        <request index="4"  response="000001111000000000" foes="111001111111000000" cont="1"/>
        <request index="5"  response="000001100000000000" foes="000001100000000000" cont="0"/>
        <request index="6"  response="000011100000011111" foes="100011100000011111" cont="0"/>
        <request index="7"  response="000011100000011111" foes="100011100000011111" cont="0"/>
        <request index="8"  response="011011100000011110" foes="011011100000011110" cont="0"/>
        <request index="9"  response="000000000000000000" foes="011000000000011000" cont="0"/>
        <request index="10" response="000000000000000000" foes="011000000000011000" cont="0"/>
        <request index="11" response="000000000000000000" foes="111000000111111000" cont="0"/>
        <request index="12" response="000000000000000000" foes="111000000111111000" cont="0"/>
        <request index="13" response="000000000000000110" foes="111000000111000110" cont="1"/>
        <request index="14" response="000000000000000110" foes="000000000000000110" cont="0"/>
        <request index="15" response="000011111000011110" foes="000011111100011110" cont="0"/>
        <request index="16" response="000011111000011110" foes="000011111100011110" cont="0"/>
        <request index="17" response="000011100011011110" foes="000011100011011110" cont="0"/>
    </junction>
    <junction id="J11" type="priority" x="1.23" y="609.46" incLanes="-E13_0 -E13_1 -E13_2 -E7_0 -E7_1 -E7_2 E10_0 E10_1 -E8_0 -E8_1 -E8_2" intLanes=":J11_0_0 :J11_1_0 :J11_1_1 :J11_1_2 :J11_4_0 :J11_5_0 :J11_6_0 :J11_6_1 :J11_17_0 :J11_9_0 :J11_10_0 :J11_10_1 :J11_12_0 :J11_13_0 :J11_14_0 :J11_14_1 :J11_18_0" shape="-8.28,626.29 10.92,626.18 11.34,622.69 11.89,621.42 12.66,620.48 13.65,619.86 14.87,619.57 13.28,603.61 10.32,603.46 9.28,603.01 8.53,602.30 8.09,601.35 7.94,600.14 -8.14,600.18 -8.91,603.51 -9.90,604.81 -11.27,605.87 -13.04,606.69 -15.21,607.26 -12.23,623.03 -10.04,623.06 -9.28,623.48 -8.73,624.15 -8.39,625.09">
        <request index="0"  response="00000000011000000" foes="00000000011000000" cont="0"/>
        <request index="1"  response="11110000111000000" foes="11111000111000000" cont="0"/>