<?xml version="1.0" encoding="UTF-8"?>

<!-- generated on 2022-04-27 20:51:49 by Eclipse SUMO netedit Version 1.12.0
<configuration xmlns:xsi="http://www.w3.org/2001/XMLSchema-instance" xsi:noNamespaceSchemaLocation="http://sumo.dlr.de/xsd/netconvertConfiguration.xsd">

    <input>
        <sumo-net-file value="scenarios/NGSIM/peachtree/map.net.xml"/>
    </input>

    <output>
        <output-file value="scenarios/NGSIM/peachtree/map.net.xml"/>
    </output>

    <processing>
        <geometry.min-radius.fix.railways value="false"/>
        <geometry.max-grade.fix value="false"/>
        <offset.disable-normalization value="true"/>
        <lefthand value="false"/>
    </processing>

    <junctions>
        <no-turnarounds value="true"/>
        <junctions.corner-detail value="5"/>
        <junctions.limit-turn-speed value="5.5"/>
        <rectangular-lane-cut value="false"/>
    </junctions>

    <pedestrian>
        <walkingareas value="false"/>
    </pedestrian>

    <report>
        <aggregate-warnings value="5"/>
    </report>

</configuration>
-->

<net version="1.9" junctionCornerDetail="5" limitTurnSpeed="5.50" xmlns:xsi="http://www.w3.org/2001/XMLSchema-instance" xsi:noNamespaceSchemaLocation="http://sumo.dlr.de/xsd/net_file.xsd">

    <location netOffset="0.00,0.00" convBoundary="-58.83,0.00,52.80,668.01" origBoundary="-10000000000.00,-10000000000.00,10000000000.00,10000000000.00" projParameter="!"/>

    <edge id=":J1_0" function="internal">
        <lane id=":J1_0_0" index="0" speed="6.12" length="9.06" shape="11.11,67.13 8.55,66.98 6.72,67.72 5.62,69.35 5.23,71.88"/>
    </edge>
    <edge id=":J1_1" function="internal">
        <lane id=":J1_1_0" index="0" speed="13.89" length="25.47" shape="11.11,67.13 -14.06,63.12"/>
        <lane id=":J1_1_1" index="1" speed="13.89" length="25.47" shape="11.76,64.00 -13.38,59.99"/>
    </edge>
    <edge id=":J1_3" function="internal">
        <lane id=":J1_3_0" index="0" speed="10.92" length="23.07" shape="11.76,64.00 7.01,62.02 3.62,58.33 1.58,52.93 0.90,45.82"/>
    </edge>
    <edge id=":J1_4" function="internal">
        <lane id=":J1_4_0" index="0" speed="7.97" length="11.85" shape="7.30,45.82 7.70,49.12 8.91,51.67 10.92,53.47 13.74,54.52"/>
    </edge>
    <edge id=":J1_5" function="internal">
        <lane id=":J1_5_0" index="0" speed="13.89" length="26.12" shape="7.30,45.82 5.23,71.88"/>
        <lane id=":J1_5_1" index="1" speed="13.89" length="26.12" shape="4.10,45.82 2.03,71.85"/>
    </edge>
    <edge id=":J1_7" function="internal">
        <lane id=":J1_7_0" index="0" speed="10.12" length="27.13" shape="4.10,45.82 3.01,53.43 -0.27,58.33 -5.73,60.52 -13.38,59.99"/>
    </edge>
    <edge id=":J1_8" function="internal">
        <lane id=":J1_8_0" index="0" speed="6.10" length="9.06" shape="-11.35,50.55 -8.79,50.72 -6.96,49.99 -5.87,48.36 -5.50,45.82"/>
    </edge>
    <edge id=":J1_9" function="internal">
        <lane id=":J1_9_0" index="0" speed="13.89" length="25.42" shape="-11.35,50.55 13.74,54.52"/>
        <lane id=":J1_9_1" index="1" speed="13.89" length="25.42" shape="-12.02,53.68 13.09,57.65"/>
        <lane id=":J1_9_2" index="2" speed="13.89" length="25.42" shape="-12.70,56.81 12.43,60.78"/>
    </edge>
    <edge id=":J1_12" function="internal">
        <lane id=":J1_12_0" index="0" speed="10.90" length="23.02" shape="-12.70,56.81 -6.22,58.93 -1.61,62.15 1.15,66.46 2.03,71.85"/>
    </edge>
    <edge id=":J1_13" function="internal">
        <lane id=":J1_13_0" index="0" speed="7.96" length="11.82" shape="-7.63,71.78 -8.01,68.52 -9.21,65.98 -11.23,64.18 -14.06,63.12"/>
    </edge>
    <edge id=":J1_14" function="internal">
        <lane id=":J1_14_0" index="0" speed="13.89" length="26.07" shape="-7.63,71.78 -5.50,45.82"/>
        <lane id=":J1_14_1" index="1" speed="13.89" length="26.07" shape="-4.43,71.81 -2.30,45.82"/>
        <lane id=":J1_14_2" index="2" speed="13.89" length="26.07" shape="-1.23,71.83 0.90,45.82"/>
    </edge>
    <edge id=":J1_17" function="internal">
        <lane id=":J1_17_0" index="0" speed="9.02" length="2.48" shape="-1.23,71.83 -0.86,69.38"/>
    </edge>
    <edge id=":J1_18" function="internal">
        <lane id=":J1_18_0" index="0" speed="9.02" length="18.63" shape="-0.86,69.38 -0.34,65.93 2.23,62.13 6.49,60.41 12.43,60.78"/>
    </edge>
    <edge id=":J10_0" function="internal">
        <lane id=":J10_0_0" index="0" speed="8.77" length="17.24" shape="-7.06,384.12 -7.44,377.59 -8.52,372.94 -10.29,370.15 -12.74,369.23"/>
    </edge>
    <edge id=":J10_1" function="internal">
        <lane id=":J10_1_0" index="0" speed="13.89" length="30.18" shape="-7.06,384.12 -4.68,354.04"/>
        <lane id=":J10_1_1" index="1" speed="13.89" length="30.18" shape="-3.86,384.10 -1.48,354.01"/>
    </edge>
    <edge id=":J10_3" function="internal">
        <lane id=":J10_3_0" index="0" speed="11.28" length="13.20" shape="-3.86,384.10 -2.78,376.05 -0.25,371.65"/>
        <lane id=":J10_3_1" index="1" speed="10.27" length="5.12" shape="-0.66,384.08 0.01,379.01"/>
    </edge>
    <edge id=":J10_18" function="internal">
        <lane id=":J10_18_0" index="0" speed="11.28" length="16.05" shape="-0.25,371.65 0.54,370.28 6.11,366.81 13.92,365.62"/>
    </edge>
    <edge id=":J10_19" function="internal">
        <lane id=":J10_19_0" index="0" speed="10.27" length="18.96" shape="0.01,379.01 0.22,377.43 2.95,372.67 7.52,369.80 13.94,368.82"/>
    </edge>
    <edge id=":J10_5" function="internal">
        <lane id=":J10_5_0" index="0" speed="7.17" length="11.18" shape="13.98,378.40 10.41,378.77 7.86,379.83 6.34,381.59 5.84,384.05"/>
    </edge>
    <edge id=":J10_6" function="internal">
        <lane id=":J10_6_0" index="0" speed="13.89" length="28.62" shape="13.98,378.40 5.25,376.99 -0.93,373.82 -6.33,370.65 -12.74,369.23"/>
        <lane id=":J10_6_1" index="1" speed="13.89" length="28.62" shape="13.97,375.20 5.24,373.79 -0.94,370.62 -6.35,367.45 -12.76,366.03"/>
    </edge>
    <edge id=":J10_8" function="internal">
        <lane id=":J10_8_0" index="0" speed="10.86" length="26.95" shape="13.95,372.00 7.26,370.91 2.46,367.55 -0.45,361.91 -1.48,354.01"/>
    </edge>
    <edge id=":J10_9" function="internal">
        <lane id=":J10_9_0" index="0" speed="7.28" length="11.50" shape="8.22,353.92 8.61,357.65 9.69,360.31 11.46,361.90 13.91,362.42"/>
        <lane id=":J10_9_1" index="1" speed="8.64" length="16.61" shape="5.02,353.95 5.63,359.07 7.32,362.72 10.08,364.91 13.92,365.62"/>
    </edge>
    <edge id=":J10_11" function="internal">
        <lane id=":J10_11_0" index="0" speed="13.89" length="30.10" shape="5.02,353.95 5.84,384.05"/>
        <lane id=":J10_11_1" index="1" speed="13.89" length="30.10" shape="1.82,353.98 2.64,384.06"/>
    </edge>
    <edge id=":J10_13" function="internal">
        <lane id=":J10_13_0" index="0" speed="9.72" length="5.80" shape="1.82,353.98 0.96,359.22 0.68,359.62"/>
    </edge>
    <edge id=":J10_20" function="internal">
        <lane id=":J10_20_0" index="0" speed="9.72" length="15.73" shape="0.68,359.62 -1.75,362.98 -6.33,365.25 -12.76,366.03"/>
    </edge>
    <edge id=":J10_14" function="internal">
        <lane id=":J10_14_0" index="0" speed="7.15" length="11.17" shape="-12.79,359.68 -9.22,359.31 -6.68,358.25 -5.17,356.49 -4.68,354.04"/>
    </edge>
    <edge id=":J10_15" function="internal">
        <lane id=":J10_15_0" index="0" speed="13.89" length="27.53" shape="-12.79,359.68 -6.32,360.60 -0.82,362.66 5.38,364.71 13.92,365.62"/>
        <lane id=":J10_15_1" index="1" speed="13.89" length="27.53" shape="-12.78,362.88 -6.31,363.80 -0.80,365.86 5.40,367.91 13.94,368.82"/>
    </edge>
    <edge id=":J10_17" function="internal">
        <lane id=":J10_17_0" index="0" speed="11.36" length="29.64" shape="-12.78,362.88 -6.07,364.18 -1.27,368.14 1.63,374.77 2.64,384.06"/>
    </edge>
    <edge id=":J11_0" function="internal">
        <lane id=":J11_0_0" index="0" speed="7.04" length="9.31" shape="15.21,626.61 12.90,627.35 11.25,628.69 10.24,630.63 9.89,633.17"/>
    </edge>
    <edge id=":J11_1" function="internal">
        <lane id=":J11_1_0" index="0" speed="13.89" length="27.99" shape="15.21,626.61 6.42,627.61 -0.22,627.68 -6.12,627.60 -12.72,628.15"/>
        <lane id=":J11_1_1" index="1" speed="13.89" length="27.99" shape="14.69,623.45 5.91,624.45 -0.71,624.51 -6.61,624.43 -13.20,624.98"/>
    </edge>
    <edge id=":J11_3" function="internal">
        <lane id=":J11_3_0" index="0" speed="9.14" length="6.26" shape="14.16,620.29 8.27,620.41 7.94,620.26"/>
    </edge>
    <edge id=":J11_17" function="internal">
        <lane id=":J11_17_0" index="0" speed="9.14" length="14.85" shape="7.94,620.26 4.05,618.53 1.51,614.65 0.63,608.76"/>
    </edge>
    <edge id=":J11_4" function="internal">
        <lane id=":J11_4_0" index="0" speed="6.31" length="9.46" shape="7.10,608.72 7.49,611.38 8.62,613.14 10.49,614.00 13.11,613.95"/>
    </edge>
    <edge id=":J11_5" function="internal">
        <lane id=":J11_5_0" index="0" speed="13.89" length="24.40" shape="7.10,608.72 6.69,633.14"/>
        <lane id=":J11_5_1" index="1" speed="13.89" length="24.40" shape="3.90,608.74 3.49,633.11"/>
    </edge>
    <edge id=":J11_7" function="internal">
        <lane id=":J11_7_0" index="0" speed="11.29" length="26.04" shape="3.90,608.74 2.86,614.87 -0.34,619.62 -5.69,622.99 -13.20,624.98"/>
    </edge>
    <edge id=":J11_8" function="internal">
        <lane id=":J11_8_0" index="0" speed="7.86" length="12.16" shape="-14.63,615.52 -10.74,614.60 -7.97,613.17 -6.31,611.23 -5.77,608.79"/>
    </edge>
    <edge id=":J11_9" function="internal">
        <lane id=":J11_9_0" index="0" speed="13.89" length="27.84" shape="-14.63,615.52 -5.89,614.63 0.69,614.57 6.55,614.60 13.11,613.95"/>
        <lane id=":J11_9_1" index="1" speed="13.89" length="27.84" shape="-14.16,618.68 -5.39,617.79 1.20,617.73 7.07,617.76 13.64,617.11"/>
    </edge>
    <edge id=":J11_11" function="internal">
        <lane id=":J11_11_0" index="0" speed="9.75" length="8.59" shape="-13.68,621.85 -6.12,621.57 -5.14,621.90"/>
    </edge>
    <edge id=":J11_18" function="internal">
        <lane id=":J11_18_0" index="0" speed="9.75" length="15.63" shape="-5.14,621.90 -0.74,623.36 2.47,627.20 3.49,633.11"/>
    </edge>
    <edge id=":J11_12" function="internal">
        <lane id=":J11_12_0" index="0" speed="6.39" length="9.73" shape="-6.11,633.01 -6.50,630.50 -7.74,628.86 -9.81,628.07 -12.72,628.15"/>
    </edge>
    <edge id=":J11_13" function="internal">
        <lane id=":J11_13_0" index="0" speed="13.89" length="24.27" shape="-6.11,633.01 -5.77,608.79"/>
        <lane id=":J11_13_1" index="1" speed="13.89" length="24.27" shape="-2.91,633.04 -2.57,608.77"/>
        <lane id=":J11_13_2" index="2" speed="13.89" length="24.27" shape="0.29,633.07 0.63,608.76"/>
    </edge>
    <edge id=":J11_16" function="internal">
        <lane id=":J11_16_0" index="0" speed="10.75" length="22.92" shape="0.29,633.07 1.17,626.91 3.69,622.20 7.85,618.93 13.64,617.11"/>
    </edge>
    <edge id=":J4_0" function="internal">
        <lane id=":J4_0_0" index="0" speed="8.56" length="17.13" shape="-7.34,234.27 -7.93,228.26 -9.40,224.05 -11.75,221.64 -14.96,221.04"/>
    </edge>
    <edge id=":J4_1" function="internal">
        <lane id=":J4_1_0" index="0" speed="13.89" length="31.49" shape="-7.34,234.27 -8.50,202.71"/>
        <lane id=":J4_1_1" index="1" speed="13.89" length="31.49" shape="-4.14,234.20 -5.30,202.73"/>
        <lane id=":J4_1_2" index="2" speed="13.89" length="31.49" shape="-0.94,234.13 -2.10,202.75"/>
    </edge>
    <edge id=":J4_4" function="internal">
        <lane id=":J4_4_0" index="0" speed="11.56" length="7.89" shape="-0.94,234.13 -0.44,226.25"/>
    </edge>
    <edge id=":J4_17" function="internal">
        <lane id=":J4_17_0" index="0" speed="11.56" length="20.22" shape="-0.44,226.25 -0.36,224.92 1.85,218.10 5.69,213.66 11.17,211.61"/>
    </edge>
    <edge id=":J4_5" function="internal">
        <lane id=":J4_5_0" index="0" speed="9.47" length="18.51" shape="11.98,218.11 9.05,219.46 7.01,222.55 5.84,227.39 5.57,233.98"/>
    </edge>
    <edge id=":J4_6" function="internal">
        <lane id=":J4_6_0" index="0" speed="13.89" length="27.01" shape="11.98,218.11 -14.96,221.04"/>
        <lane id=":J4_6_1" index="1" speed="13.89" length="27.01" shape="11.54,214.94 -15.23,217.85"/>
    </edge>
    <edge id=":J4_8" function="internal">
        <lane id=":J4_8_0" index="0" speed="9.29" length="21.63" shape="11.54,214.94 5.54,214.90 1.26,212.85 -1.28,208.80 -2.10,202.75"/>
    </edge>
    <edge id=":J4_9" function="internal">
        <lane id=":J4_9_0" index="0" speed="6.54" length="10.13" shape="4.30,202.79 4.68,205.59 5.89,207.47 7.91,208.42 10.74,208.44"/>
    </edge>
    <edge id=":J4_10" function="internal">
        <lane id=":J4_10_0" index="0" speed="13.89" length="31.26" shape="4.30,202.79 5.57,233.98"/>
        <lane id=":J4_10_1" index="1" speed="13.89" length="31.26" shape="1.10,202.77 2.37,234.05"/>
    </edge>
    <edge id=":J4_12" function="internal">
        <lane id=":J4_12_0" index="0" speed="10.79" length="3.45" shape="1.10,202.77 0.51,206.17"/>
    </edge>
    <edge id=":J4_18" function="internal">
        <lane id=":J4_18_0" index="0" speed="10.79" length="21.38" shape="0.51,206.17 0.04,208.86 -3.03,213.41 -8.12,216.40 -15.23,217.85"/>
    </edge>
    <edge id=":J4_13" function="internal">
        <lane id=":J4_13_0" index="0" speed="7.85" length="12.68" shape="-15.68,211.49 -12.56,210.72 -10.32,209.00 -8.97,206.33 -8.50,202.71"/>
    </edge>
    <edge id=":J4_14" function="internal">
        <lane id=":J4_14_0" index="0" speed="13.89" length="26.68" shape="-15.68,211.49 10.74,208.44"/>
        <lane id=":J4_14_1" index="1" speed="13.89" length="26.68" shape="-15.41,214.68 11.17,211.61"/>
    </edge>
    <edge id=":J4_16" function="internal">
        <lane id=":J4_16_0" index="0" speed="11.24" length="30.33" shape="-15.41,214.68 -7.81,215.35 -2.31,218.80 1.08,225.04 2.37,234.05"/>
    </edge>
    <edge id=":J7_0" function="internal">
        <lane id=":J7_0_0" index="0" speed="13.89" length="8.23" shape="-4.68,353.71 -4.74,345.79"/>
        <lane id=":J7_0_1" index="1" speed="13.89" length="8.23" shape="-1.48,353.67 -1.54,345.71"/>
        <lane id=":J7_0_2" index="2" speed="13.89" length="8.23" shape="-1.48,353.67 -0.99,351.20 0.11,349.65 1.21,348.11 1.66,345.64"/>
    </edge>
    <edge id=":J7_3" function="internal">
        <lane id=":J7_3_0" index="0" speed="13.89" length="8.30" shape="8.06,345.49 8.22,353.55"/>
        <lane id=":J7_3_1" index="1" speed="13.89" length="8.30" shape="4.86,345.56 5.02,353.59"/>
        <lane id=":J7_3_2" index="2" speed="13.89" length="8.30" shape="4.86,345.56 4.42,348.04 3.35,349.60 2.28,351.16 1.82,353.63"/>
    </edge>

    <edge id="-E0" from="J1" to="J0" priority="-1">
        <lane id="-E0_0" index="0" speed="13.89" length="45.82" shape="-5.50,45.82 -5.50,0.00"/>
        <lane id="-E0_1" index="1" speed="13.89" length="45.82" shape="-2.30,45.82 -2.30,0.00"/>
        <lane id="-E0_2" index="2" speed="13.89" length="45.82" shape="0.90,45.82 0.90,0.00"/>
    </edge>
    <edge id="-E1" from="J2" to="J1" priority="-1" shape="43.16,68.84 11.50,62.31">
        <lane id="-E1_0" index="0" speed="13.89" length="31.73" shape="42.19,73.54 11.11,67.13"/>
        <lane id="-E1_1" index="1" speed="13.89" length="31.73" shape="42.84,70.41 11.76,64.00"/>
    </edge>
    <edge id="-E10" from="J11" to="J10" priority="-1" spreadType="center" shape="-2.51,619.20 -3.88,379.99">
        <lane id="-E10_0" index="0" speed="13.89" length="224.68" shape="-5.77,608.79 -7.06,384.12"/>
        <lane id="-E10_1" index="1" speed="13.89" length="224.68" shape="-2.57,608.77 -3.86,384.10"/>
        <lane id="-E10_2" index="2" speed="13.89" length="224.68" shape="0.63,608.76 -0.66,384.08"/>
    </edge>
    <edge id="-E11" from="J12" to="J10" priority="-1" spreadType="center" shape="40.51,375.03 2.86,375.26">
        <lane id="-E11_0" index="0" speed="13.89" length="26.06" shape="40.05,378.24 13.98,378.40"/>
        <lane id="-E11_1" index="1" speed="13.89" length="26.06" shape="40.03,375.04 13.97,375.20"/>
        <lane id="-E11_2" index="2" speed="13.89" length="26.06" shape="40.01,371.84 13.95,372.00"/>
    </edge>
    <edge id="-E12" from="J13" to="J10" priority="-1" spreadType="center" shape="-36.85,361.38 -3.59,361.24">
        <lane id="-E12_0" index="0" speed="13.89" length="23.85" shape="-36.64,359.78 -12.79,359.68"/>
        <lane id="-E12_1" index="1" speed="13.89" length="23.85" shape="-36.62,362.98 -12.78,362.88"/>
    </edge>
    <edge id="-E13" from="J14" to="J11" priority="-1">
        <lane id="-E13_0" index="0" speed="13.89" length="34.92" shape="-6.45,667.93 -6.11,633.01"/>
        <lane id="-E13_1" index="1" speed="13.89" length="34.92" shape="-3.25,667.97 -2.91,633.04"/>
        <lane id="-E13_2" index="2" speed="13.89" length="34.92" shape="-0.05,668.00 0.29,633.07"/>
    </edge>
    <edge id="-E2" from="J3" to="J1" priority="-1" shape="-42.92,51.99 -9.67,59.09">
        <lane id="-E2_0" index="0" speed="13.89" length="30.57" shape="-41.25,44.17 -11.35,50.55"/>
        <lane id="-E2_1" index="1" speed="13.89" length="30.57" shape="-41.92,47.30 -12.02,53.68"/>
        <lane id="-E2_2" index="2" speed="13.89" length="30.57" shape="-42.59,50.43 -12.70,56.81"/>
    </edge>
    <edge id="-E3" from="J4" to="J1" priority="-1" shape="-0.50,202.76 0.43,62.64">
        <lane id="-E3_0" index="0" speed="13.89" length="130.92" shape="-8.50,202.71 -7.63,71.78"/>
        <lane id="-E3_1" index="1" speed="13.89" length="130.92" shape="-5.30,202.73 -4.43,71.81"/>
        <lane id="-E3_2" index="2" speed="13.89" length="130.92" shape="-2.10,202.75 -1.23,71.83"/>
    </edge>
    <edge id="-E4" from="J5" to="J4" priority="-1" shape="52.80,207.58 11.32,213.36">
        <lane id="-E4_0" index="0" speed="13.89" length="41.88" shape="53.46,212.33 11.98,218.11"/>
        <lane id="-E4_1" index="1" speed="13.89" length="41.88" shape="53.02,209.16 11.54,214.94"/>
    </edge>
    <edge id="-E5" from="J6" to="J4" priority="-1" shape="-58.83,219.88 -15.28,216.27">
        <lane id="-E5_0" index="0" speed="13.89" length="43.70" shape="-59.23,215.10 -15.68,211.49"/>
        <lane id="-E5_1" index="1" speed="13.89" length="43.70" shape="-58.96,218.29 -15.41,214.68"/>
    </edge>
    <edge id="-E6" from="J7" to="J4" priority="-1" shape="3.29,346.93 0.66,233.98">
        <lane id="-E6_0" index="0" speed="13.89" length="111.54" shape="-4.74,345.79 -7.34,234.27"/>
        <lane id="-E6_1" index="1" speed="13.89" length="111.54" shape="-1.54,345.71 -4.14,234.20"/>
        <lane id="-E6_2" index="2" speed="13.89" length="111.54" shape="1.66,345.64 -0.94,234.13"/>
    </edge>
    <edge id="-E7" from="J8" to="J11" priority="-1" shape="49.72,612.74 9.38,619.47">
        <lane id="-E7_0" index="0" speed="13.89" length="36.32" shape="51.04,620.63 15.21,626.61"/>
        <lane id="-E7_1" index="1" speed="13.89" length="36.32" shape="50.51,617.47 14.69,623.45"/>
        <lane id="-E7_2" index="2" speed="13.89" length="36.32" shape="49.99,614.32 14.16,620.29"/>
    </edge>
    <edge id="-E8" from="J9" to="J11" priority="-1" shape="-41.48,627.66 -13.44,623.43">
        <lane id="-E8_0" index="0" speed="13.89" length="28.36" shape="-42.67,619.75 -14.63,615.52"/>
        <lane id="-E8_1" index="1" speed="13.89" length="28.36" shape="-42.20,622.91 -14.16,618.68"/>
        <lane id="-E8_2" index="2" speed="13.89" length="28.36" shape="-41.72,626.08 -13.68,621.85"/>
    </edge>
    <edge id="-E9" from="J10" to="J7" priority="-1" spreadType="center" shape="-2.93,370.74 -3.14,346.97">
        <lane id="-E9_0" index="0" speed="13.89" length="0.33" shape="-4.68,354.04 -4.68,353.71"/>
        <lane id="-E9_1" index="1" speed="13.89" length="0.33" shape="-1.48,354.01 -1.48,353.67"/>
    </edge>
    <edge id="E0" from="J0" to="J1" priority="-1">
        <lane id="E0_0" index="0" speed="13.89" length="45.82" shape="7.30,0.00 7.30,45.82"/>
        <lane id="E0_1" index="1" speed="13.89" length="45.82" shape="4.10,0.00 4.10,45.82"/>
    </edge>
    <edge id="E1" from="J1" to="J2" priority="-1" shape="11.58,62.24 43.16,68.84">
        <lane id="E1_0" index="0" speed="13.89" length="31.72" shape="13.74,54.52 44.80,61.01"/>
        <lane id="E1_1" index="1" speed="13.89" length="31.72" shape="13.09,57.65 44.14,64.14"/>
        <lane id="E1_2" index="2" speed="13.89" length="31.72" shape="12.43,60.78 43.49,67.27"/>
    </edge>
    <edge id="E10" from="J10" to="J11" priority="-1" spreadType="center" shape="4.22,380.02 5.56,619.58">
        <lane id="E10_0" index="0" speed="13.89" length="224.68" shape="5.84,384.05 7.10,608.72"/>
        <lane id="E10_1" index="1" speed="13.89" length="224.68" shape="2.64,384.06 3.90,608.74"/>
    </edge>
    <edge id="E11" from="J10" to="J12" priority="-1" spreadType="center" shape="3.17,365.67 40.69,365.51">
        <lane id="E11_0" index="0" speed="13.89" length="26.06" shape="13.91,362.42 39.97,362.31"/>
        <lane id="E11_1" index="1" speed="13.89" length="26.06" shape="13.92,365.62 39.98,365.51"/>
        <lane id="E11_2" index="2" speed="13.89" length="26.06" shape="13.94,368.82 39.99,368.71"/>
    </edge>
    <edge id="E12" from="J10" to="J13" priority="-1" spreadType="center" shape="-3.92,367.58 -36.92,367.76">
        <lane id="E12_0" index="0" speed="13.89" length="23.85" shape="-12.74,369.23 -36.59,369.36"/>
        <lane id="E12_1" index="1" speed="13.89" length="23.85" shape="-12.76,366.03 -36.61,366.16"/>
    </edge>
    <edge id="E13" from="J11" to="J14" priority="-1">
        <lane id="E13_0" index="0" speed="13.89" length="34.92" shape="9.89,633.17 9.55,668.09"/>
        <lane id="E13_1" index="1" speed="13.89" length="34.92" shape="6.69,633.14 6.35,668.06"/>
        <lane id="E13_2" index="2" speed="13.89" length="34.92" shape="3.49,633.11 3.15,668.03"/>
    </edge>
    <edge id="E2" from="J1" to="J3" priority="-1" shape="-9.73,59.14 -42.92,51.99">
        <lane id="E2_0" index="0" speed="13.89" length="30.56" shape="-14.06,63.12 -43.93,56.68"/>
        <lane id="E2_1" index="1" speed="13.89" length="30.56" shape="-13.38,59.99 -43.26,53.55"/>
    </edge>
    <edge id="E3" from="J1" to="J4" priority="-1" shape="0.50,62.69 -0.50,202.62">
        <lane id="E3_0" index="0" speed="13.89" length="130.92" shape="5.23,71.88 4.30,202.79"/>
        <lane id="E3_1" index="1" speed="13.89" length="130.92" shape="2.03,71.85 1.10,202.77"/>
    </edge>
    <edge id="E4" from="J4" to="J5" priority="-1" shape="11.39,213.20 52.80,207.58">
        <lane id="E4_0" index="0" speed="13.89" length="41.79" shape="10.74,208.44 52.15,202.82"/>
        <lane id="E4_1" index="1" speed="13.89" length="41.79" shape="11.17,211.61 52.58,205.99"/>
    </edge>
    <edge id="E5" from="J4" to="J6" priority="-1" shape="-15.36,216.26 -58.83,219.88">
        <lane id="E5_0" index="0" speed="13.89" length="43.62" shape="-14.96,221.04 -58.43,224.66"/>
        <lane id="E5_1" index="1" speed="13.89" length="43.62" shape="-15.23,217.85 -58.70,221.47"/>
    </edge>
    <edge id="E6" from="J4" to="J7" priority="-1" shape="0.77,234.09 3.29,346.93">
        <lane id="E6_0" index="0" speed="13.89" length="111.54" shape="5.57,233.98 8.06,345.49"/>
        <lane id="E6_1" index="1" speed="13.89" length="111.54" shape="2.37,234.05 4.86,345.56"/>
    </edge>
    <edge id="E7" from="J11" to="J8" priority="-1" shape="9.56,619.41 49.72,612.74">
        <lane id="E7_0" index="0" speed="13.89" length="36.32" shape="13.11,613.95 48.94,608.01"/>
        <lane id="E7_1" index="1" speed="13.89" length="36.32" shape="13.64,617.11 49.46,611.16"/>
    </edge>
    <edge id="E8" from="J11" to="J9" priority="-1" shape="-13.44,623.40 -41.48,627.66">
        <lane id="E8_0" index="0" speed="13.89" length="28.36" shape="-12.72,628.15 -40.76,632.41"/>
        <lane id="E8_1" index="1" speed="13.89" length="28.36" shape="-13.20,624.98 -41.24,629.24"/>
    </edge>
    <edge id="E9" from="J7" to="J10" priority="-1" spreadType="center" shape="5.00,352.26 5.23,371.21">
        <lane id="E9_0" index="0" speed="13.89" length="0.36" shape="8.22,353.55 8.22,353.92"/>
        <lane id="E9_1" index="1" speed="13.89" length="0.36" shape="5.02,353.59 5.02,353.95"/>
        <lane id="E9_2" index="2" speed="13.89" length="0.36" shape="1.82,353.63 1.82,353.98"/>
    </edge>

    <junction id="J0" type="dead_end" x="2.50" y="0.00" incLanes="-E0_0 -E0_1 -E0_2" intLanes="" shape="2.50,0.00 -7.10,0.00 2.50,0.00"/>
    <junction id="J1" type="priority" x="2.50" y="55.30" incLanes="-E1_0 -E1_1 E0_0 E0_1 -E2_0 -E2_1 -E2_2 -E3_0 -E3_1 -E3_2" intLanes=":J1_0_0 :J1_1_0 :J1_1_1 :J1_3_0 :J1_4_0 :J1_5_0 :J1_5_1 :J1_7_0 :J1_8_0 :J1_9_0 :J1_9_1 :J1_9_2 :J1_12_0 :J1_13_0 :J1_14_0 :J1_14_1 :J1_14_2 :J1_18_0" shape="10.78,68.70 14.07,52.95 11.20,51.68 10.19,50.63 9.47,49.30 9.04,47.70 8.90,45.82 -7.10,45.82 -7.53,47.95 -8.08,48.61 -8.84,49.01 -9.82,49.13 -11.01,48.99 -14.39,64.68 -11.51,65.97 -10.50,67.02 -9.79,68.33 -9.36,69.92 -9.23,71.77 6.83,71.89 7.29,69.76 7.84,69.09 8.60,68.69 9.58,68.56">
        <request index="0"  response="000000000000000000" foes="000000000001100000" cont="0"/>
        <request index="1"  response="111111000000000000" foes="111111000011100000" cont="0"/>
        <request index="2"  response="111111000000000000" foes="111111000011100000" cont="0"/>
        <request index="3"  response="111100111000000000" foes="111100111011100000" cont="0"/>
        <request index="4"  response="000000111000000000" foes="000000111000000000" cont="0"/>
        <request index="5"  response="100001111000001111" foes="100001111000001111" cont="0"/>
        <request index="6"  response="100001111000001111" foes="100001111000001111" cont="0"/>
        <request index="7"  response="011101111000001110" foes="011101111000001110" cont="0"/>
        <request index="8"  response="000000000000000000" foes="011100000000000000" cont="0"/>
        <request index="9"  response="000000000000000000" foes="111100000011111000" cont="0"/>
        <request index="10" response="000000000000000000" foes="111100000011111000" cont="0"/>
        <request index="11" response="000000000000000000" foes="111100000011111000" cont="0"/>
        <request index="12" response="000000000000000000" foes="111100000011100110" cont="0"/>
        <request index="13" response="000000000000000000" foes="000000000000000110" cont="0"/>
        <request index="14" response="000001111100000000" foes="000001111110001110" cont="0"/>
        <request index="15" response="000001111100000000" foes="000001111110001110" cont="0"/>
        <request index="16" response="000001111100000000" foes="000001111110001110" cont="0"/>
        <request index="17" response="000001111000000000" foes="000001111001101110" cont="1"/>
    </junction>
    <junction id="J10" type="priority" x="3.08" y="370.47" incLanes="-E10_0 -E10_1 -E10_2 -E11_0 -E11_1 -E11_2 E9_0 E9_1 E9_2 -E12_0 -E12_1" intLanes=":J10_0_0 :J10_1_0 :J10_1_1 :J10_18_0 :J10_19_0 :J10_5_0 :J10_6_0 :J10_6_1 :J10_8_0 :J10_9_0 :J10_9_1 :J10_11_0 :J10_11_1 :J10_20_0 :J10_14_0 :J10_15_0 :J10_15_1 :J10_17_0" shape="-8.66,384.13 7.44,384.04 8.16,381.81 9.07,381.03 10.34,380.46 11.98,380.12 13.99,380.00 13.90,360.82 11.67,360.06 10.88,359.10 10.31,357.76 9.96,356.03 9.82,353.91 -6.28,354.05 -6.99,356.28 -7.89,357.06 -9.16,357.62 -10.80,357.96 -12.80,358.08 -12.73,370.83 -10.50,372.30 -9.71,374.14 -9.14,376.73 -8.79,380.06">
        <request index="0"  response="000000000000000000" foes="000000000011000000" cont="0"/>
        <request index="1"  response="000000000000000000" foes="111110000111000000" cont="0"/>
        <request index="2"  response="000000000000000000" foes="111110000111000000" cont="0"/>
        <request index="3"  response="000001111000000000" foes="111001111111000000" cont="1"/>
        <request index="4"  response="000001111000000000" foes="111001111111000000" cont="1"/>
        <request index="5"  response="000001100000000000" foes="000001100000000000" cont="0"/>
        <request index="6"  response="000011100000011111" foes="100011100000011111" cont="0"/>
        <request index="7"  response="000011100000011111" foes="100011100000011111" cont="0"/>
        <request index="8"  response="011011100000011110" foes="011011100000011110" cont="0"/>
        <request index="9"  response="000000000000000000" foes="011000000000011000" cont="0"/>
        <request index="10" response="000000000000000000" foes="011000000000011000" cont="0"/>
        <request index="11" response="000000000000000000" foes="111000000111111000" cont="0"/>
        <request index="12" response="000000000000000000" foes="111000000111111000" cont="0"/>
        <request index="13" response="000000000000000110" foes="111000000111000110" cont="1"/>
        <request index="14" response="000000000000000110" foes="000000000000000110" cont="0"/>
        <request index="15" response="000011111000011110" foes="000011111100011110" cont="0"/>
        <request index="16" response="000011111000011110" foes="000011111100011110" cont="0"/>
        <request index="17" response="000011100011011110" foes="000011100011011110" cont="0"/>
    </junction>
    <junction id="J11" type="priority" x="2.03" y="618.38" incLanes="-E7_0 -E7_1 -E7_2 E10_0 E10_1 -E8_0 -E8_1 -E8_2 -E13_0 -E13_1 -E13_2" intLanes=":J11_0_0 :J11_1_0 :J11_1_1 :J11_17_0 :J11_4_0 :J11_5_0 :J11_5_1 :J11_7_0 :J11_8_0 :J11_9_0 :J11_9_1 :J11_18_0 :J11_12_0 :J11_13_0 :J11_13_1 :J11_13_2 :J11_16_0" shape="15.47,628.19 12.85,612.38 10.55,612.27 9.75,611.80 9.17,611.05 8.82,610.02 8.70,608.71 -7.37,608.80 -8.19,611.15 -9.24,612.09 -10.70,612.86 -12.58,613.48 -14.88,613.94 -12.48,629.73 -9.81,629.77 -8.88,630.18 -8.22,630.86 -7.83,631.80 -7.71,633.00 11.49,633.18 11.95,630.70 12.50,629.76 13.28,629.03 14.27,628.51">
        <request index="0"  response="00000000000000000" foes="00000000000000000" cont="0"/>