<?xml version="1.0" encoding="UTF-8"?>

<!-- generated on 2022-03-29 00:35:13 by Eclipse SUMO netedit Version 1.12.0
<configuration xmlns:xsi="http://www.w3.org/2001/XMLSchema-instance" xsi:noNamespaceSchemaLocation="http://sumo.dlr.de/xsd/netconvertConfiguration.xsd">

    <input>
        <sumo-net-file value="/home/sqy201x/ngsim/peach/map.net.xml"/>
    </input>

    <output>
        <output-file value="/home/sqy201x/ngsim/peach/map.net.xml"/>
    </output>

    <processing>
        <geometry.min-radius.fix.railways value="false"/>
        <geometry.max-grade.fix value="false"/>
        <offset.disable-normalization value="true"/>
        <lefthand value="false"/>
    </processing>

    <junctions>
        <no-internal-links value="true"/>
        <no-turnarounds value="true"/>
        <junctions.corner-detail value="5"/>
        <junctions.limit-turn-speed value="5.5"/>
        <rectangular-lane-cut value="false"/>
    </junctions>

    <pedestrian>
        <walkingareas value="false"/>
    </pedestrian>

    <report>
        <aggregate-warnings value="5"/>
    </report>

</configuration>
-->

<net version="1.9" junctionCornerDetail="5" limitTurnSpeed="5.50" xmlns:xsi="http://www.w3.org/2001/XMLSchema-instance" xsi:noNamespaceSchemaLocation="http://sumo.dlr.de/xsd/net_file.xsd">

    <location netOffset="0.00,0.00" convBoundary="-14.67,4.68,31.35,633.85" origBoundary="-10000000000.00,-10000000000.00,10000000000.00,10000000000.00" projParameter="!"/>

    <edge id="E0" from="J4" to="J0" priority="-1" shape="2.05,52.62 -0.37,111.51 -0.88,192.32">
        <lane id="E0_0" index="0" speed="13.89" length="139.75" shape="6.15,69.74 4.43,111.62 3.92,192.18"/>
        <lane id="E0_1" index="1" speed="13.89" length="139.75" shape="2.95,69.61 1.23,111.55 0.72,192.16"/>
    </edge>
    <edge id="E1" from="J3" to="J4" priority="-1">
        <lane id="E1_0" index="0" speed="13.89" length="45.37" shape="6.88,11.30 6.85,48.62"/>
        <lane id="E1_1" index="1" speed="13.89" length="45.37" shape="3.68,11.30 3.65,48.62"/>
    </edge>
    <edge id="E11" from="J16" to="J21" priority="-1">
        <lane id="E11_0" index="0" speed="13.89" length="25.98" shape="5.90,378.60 4.12,392.99"/>
        <lane id="E11_1" index="1" speed="13.89" length="25.98" shape="2.72,378.20 0.94,392.60"/>
    </edge>
    <edge id="E12" from="J21" to="J22" priority="-1">
        <lane id="E12_0" index="0" speed="13.89" length="37.37" shape="4.11,393.28 6.24,430.01"/>
        <lane id="E12_1" index="1" speed="13.89" length="37.37" shape="0.91,393.47 3.05,430.20"/>
    </edge>
    <edge id="E15" from="J25" to="J16" priority="-1">
        <lane id="E15_0" index="0" speed="13.89" length="24.82" shape="25.88,376.76 12.21,374.04"/>
        <lane id="E15_1" index="1" speed="13.89" length="24.82" shape="26.50,373.62 12.84,370.90"/>
    </edge>
    <edge id="E16" from="J16" to="J26" priority="-1">
        <lane id="E16_0" index="0" speed="13.89" length="11.96" shape="-2.78,370.59 -10.38,368.22"/>
        <lane id="E16_1" index="1" speed="13.89" length="11.96" shape="-1.82,367.54 -9.43,365.17"/>
    </edge>
    <edge id="E17" from="J27" to="J28" priority="-1" shape="3.87,369.92 4.71,328.70 5.31,317.36 3.59,271.14">
        <lane id="E17_0" index="0" speed="13.89" length="98.84" shape="2.27,369.89 3.11,328.64 3.71,317.35 1.99,271.20"/>
    </edge>
    <edge id="E18" from="J22" to="J29" priority="-1">
        <lane id="E18_0" index="0" speed="13.89" length="185.83" shape="6.25,430.23 8.47,612.09"/>
        <lane id="E18_1" index="1" speed="13.89" length="185.83" shape="3.05,430.27 5.27,612.13"/>
    </edge>
    <edge id="E19" from="J29" to="J30" priority="-1">
        <lane id="E19_0" index="0" speed="13.89" length="17.85" shape="7.31,627.30 6.53,634.38"/>
        <lane id="E19_1" index="1" speed="13.89" length="17.85" shape="4.13,626.95 3.35,634.03"/>
    </edge>
    <edge id="E20" from="J31" to="J29" priority="-1">
        <lane id="E20_0" index="0" speed="13.89" length="21.09" shape="24.22,623.02 13.59,621.94"/>
        <lane id="E20_1" index="1" speed="13.89" length="21.09" shape="24.54,619.83 13.91,618.75"/>
    </edge>
    <edge id="E22" from="J34" to="J35" priority="-1">
        <lane id="E22_0" index="0" speed="13.89" length="69.33" shape="2.50,619.10 1.68,549.77"/>
    </edge>
    <edge id="E23" from="J29" to="J36" priority="-1">
        <lane id="E23_0" index="0" speed="13.89" length="18.85" shape="-1.24,622.14 -13.62,624.91"/>
        <lane id="E23_1" index="1" speed="13.89" length="18.85" shape="-1.94,619.02 -14.32,621.79"/>
    </edge>
    <edge id="E4" from="J6" to="J4" priority="-1">
        <lane id="E4_0" index="0" speed="13.89" length="32.16" shape="28.05,73.17 12.22,66.00"/>
        <lane id="E4_1" index="1" speed="13.89" length="32.16" shape="29.37,70.25 13.54,63.09"/>
        <lane id="E4_2" index="2" speed="13.89" length="32.16" shape="30.69,67.34 14.86,60.17"/>
    </edge>
    <edge id="E6" from="J8" to="J3" priority="-1">
        <lane id="E6_0" index="0" speed="13.89" length="12.64" shape="16.18,9.48 8.44,9.71"/>
        <lane id="E6_1" index="1" speed="13.89" length="12.64" shape="16.08,6.28 8.34,6.51"/>
    </edge>
    <edge id="E7" from="J4" to="J10" priority="-1">
        <lane id="E7_0" index="0" speed="13.89" length="15.44" shape="-5.27,57.75 -15.33,52.32"/>
        <lane id="E7_1" index="1" speed="13.89" length="15.44" shape="-3.75,54.94 -13.81,49.50"/>
        <lane id="E7_2" index="2" speed="13.89" length="15.44" shape="-2.23,52.13 -12.29,46.69"/>
    </edge>
    <edge id="E8" from="J0" to="J11" priority="-1">
        <lane id="E8_0" index="0" speed="13.89" length="124.87" shape="3.92,192.26 9.86,316.82"/>
        <lane id="E8_1" index="1" speed="13.89" length="124.87" shape="0.73,192.42 6.67,316.97"/>
    </edge>
    <edge id="E9" from="J11" to="J16" priority="-1">
        <lane id="E9_0" index="0" speed="13.89" length="50.22" shape="9.86,317.30 7.47,363.45"/>
        <lane id="E9_1" index="1" speed="13.89" length="50.22" shape="6.67,317.13 4.27,363.29"/>
    </edge>

    <junction id="J0" type="priority" x="-0.88" y="192.32" incLanes="E0_0 E0_1" intLanes="" shape="-0.87,192.49 5.52,192.19 -0.88,192.15">
        <request index="0" response="00" foes="00"/>
        <request index="1" response="00" foes="00"/>
    </junction>
    <junction id="J10" type="dead_end" x="-11.53" y="45.28" incLanes="E7_0 E7_1 E7_2" intLanes="" shape="-16.09,53.72 -11.53,45.28"/>
    <junction id="J11" type="priority" x="5.07" y="317.05" incLanes="E8_0 E8_1" intLanes="" shape="11.46,316.75 5.07,317.05 11.46,317.38 11.47,317.15 11.47,317.06 11.47,316.98">
        <request index="0" response="00" foes="00"/>
        <request index="1" response="00" foes="00"/>
    </junction>
    <junction id="J16" type="priority" x="2.47" y="367.20" incLanes="E15_0 E15_1 E9_0 E9_1" intLanes="" shape="11.90,375.61 13.15,369.33 10.77,368.30 9.96,367.45 9.41,366.37 9.11,365.07 9.07,363.54 2.68,363.21 2.14,365.29 1.57,365.90 0.80,366.23 -0.18,366.26 -1.35,366.01 -3.25,372.12 -0.58,373.46 0.31,374.36 0.88,375.42 1.16,376.63 1.13,378.01 7.48,378.79 8.19,376.67 8.83,376.01 9.66,375.61 10.69,375.48">
        <request index="0" response="000000" foes="011000"/>
        <request index="1" response="000000" foes="111000"/>
        <request index="2" response="000000" foes="111000"/>
        <request index="3" response="000111" foes="000111"/>
        <request index="4" response="000111" foes="000111"/>
        <request index="5" response="000110" foes="000110"/>
    </junction>
    <junction id="J21" type="priority" x="-0.72" y="392.98" incLanes="E11_0 E11_1" intLanes="" shape="-0.69,393.56 5.70,393.19 -0.65,392.40 -0.70,392.83 -0.71,392.98 -0.71,393.13 -0.70,393.31">
        <request index="0" response="00" foes="00"/>
        <request index="1" response="00" foes="00"/>
    </junction>
    <junction id="J22" type="priority" x="1.45" y="430.29" incLanes="E12_0 E12_1" intLanes="" shape="1.45,430.35 7.85,430.27 7.84,429.86 1.45,430.23">
        <request index="0" response="00" foes="00"/>
        <request index="1" response="00" foes="00"/>
    </junction>
    <junction id="J25" type="dead_end" x="26.81" y="372.05" incLanes="" intLanes="" shape="26.81,372.05 25.56,378.33"/>
    <junction id="J26" type="dead_end" x="-8.95" y="363.64" incLanes="E16_0 E16_1" intLanes="" shape="-10.85,369.75 -8.95,363.64"/>
    <junction id="J27" type="dead_end" x="3.87" y="369.92" incLanes="" intLanes="" shape="3.87,369.92 0.67,369.85"/>
    <junction id="J28" type="dead_end" x="3.59" y="271.14" incLanes="E17_0" intLanes="" shape="0.39,271.26 3.59,271.14"/>
    <junction id="J29" type="priority" x="3.72" y="616.11" incLanes="E20_0 E20_1 E18_0 E18_1" intLanes="" shape="13.43,623.53 14.07,617.16 11.88,616.42 11.10,615.69 10.54,614.72 10.20,613.51 10.07,612.07 3.67,612.15 3.03,614.50 2.21,615.46 1.04,616.27 -0.46,616.94 -2.29,617.46 -0.89,623.70 1.21,623.66 1.90,624.04 2.35,624.68 2.57,625.60 2.54,626.78 8.90,627.48 9.62,625.10 10.27,624.31 11.13,623.78 12.18,623.52">
        <request index="0" response="000000" foes="011000"/>
        <request index="1" response="000000" foes="111000"/>
        <request index="2" response="000000" foes="111000"/>
        <request index="3" response="000111" foes="000111"/>
        <request index="4" response="000111" foes="000111"/>
        <request index="5" response="000110" foes="000110"/>
    </junction>
    <junction id="J3" type="priority" x="2.09" y="5.09" incLanes="E6_0 E6_1" intLanes="" shape="2.08,11.30 8.48,11.31 8.30,4.91 4.85,5.70 3.64,6.60 2.78,7.83 2.26,9.40">
        <request index="0" response="00" foes="00"/>
        <request index="1" response="00" foes="00"/>
    </junction>
    <junction id="J30" type="dead_end" x="1.76" y="633.85" incLanes="E19_0 E19_1" intLanes="" shape="8.12,634.55 1.76,633.85"/>
    <junction id="J31" type="dead_end" x="24.70" y="618.24" incLanes="" intLanes="" shape="24.70,618.24 24.05,624.61"/>
    <junction id="J34" type="dead_end" x="4.10" y="619.08" incLanes="" intLanes="" shape="4.10,619.08 0.90,619.12"/>
    <junction id="J35" type="dead_end" x="3.28" y="549.75" incLanes="E22_0" intLanes="" shape="0.08,549.79 3.28,549.75"/>
    <junction id="J36" type="dead_end" x="-14.67" y="620.23" incLanes="E23_0 E23_1" intLanes="" shape="-13.27,626.48 -14.67,620.23"/>
    <junction id="J4" type="priority" x="2.05" y="52.62" incLanes="E4_0 E4_1 E4_2 E1_0 E1_1" intLanes="" shape="11.56,67.46 15.52,58.71 13.36,57.55 11.59,56.17 10.22,54.59 9.24,52.81 8.65,50.82 8.45,48.63 2.05,48.62 1.66,50.63 1.17,51.14 0.49,51.33 -0.39,51.19 -1.47,50.72 -6.03,59.16 -3.71,60.60 -1.82,62.15 -0.36,63.82 0.65,65.61 1.22,67.52 1.35,69.54 7.75,69.81 8.25,67.77 8.78,67.22 9.51,66.99 10.44,67.07">
        <request index="0" response="00000000" foes="00110000"/>
        <request index="1" response="00000000" foes="11110000"/>
        <request index="2" response="00000000" foes="11110000"/>
        <request index="3" response="00000000" foes="11110000"/>
        <request index="4" response="00001111" foes="00001111"/>
        <request index="5" response="00001111" foes="00001111"/>
        <request index="6" response="00001110" foes="00001110"/>
        <request index="7" response="00001110" foes="00001110"/>
    </junction>
    <junction id="J6" type="dead_end" x="31.35" y="65.88" incLanes="" intLanes="" shape="31.35,65.88 27.39,74.63"/>
    <junction id="J8" type="dead_end" x="16.04" y="4.68" incLanes="" intLanes="" shape="16.04,4.68 16.23,11.08"/>

    <connection from="E0" to="E8" fromLane="0" toLane="0" dir="s" state="M"/>
    <connection from="E0" to="E8" fromLane="1" toLane="1" dir="s" state="M"/>
    <connection from="E1" to="E0" fromLane="0" toLane="0" dir="s" state="m"/>
    <connection from="E1" to="E0" fromLane="1" toLane="1" dir="s" state="m"/>
    <connection from="E1" to="E7" fromLane="1" toLane="1" dir="l" state="m"/>
    <connection from="E1" to="E7" fromLane="1" toLane="2" dir="l" state="m"/>
    <connection from="E11" to="E12" fromLane="0" toLane="0" dir="s" state="M"/>
    <connection from="E11" to="E12" fromLane="1" toLane="1" dir="s" state="M"/>
    <connection from="E12" to="E18" fromLane="0" toLane="0" dir="s" state="M"/>
    <connection from="E12" to="E18" fromLane="1" toLane="1" dir="s" state="M"/>
    <connection from="E15" to="E11" fromLane="0" toLane="0" dir="r" state="M"/>
    <connection from="E15" to="E16" fromLane="0" toLane="0" dir="s" state="M"/>
    <connection from="E15" to="E16" fromLane="1" toLane="1" dir="s" state="M"/>
    <connection from="E18" to="E19" fromLane="0" toLane="0" dir="s" state="m"/>
    <connection from="E18" to="E19" fromLane="1" toLane="1" dir="s" state="m"/>
    <connection from="E18" to="E23" fromLane="1" toLane="1" dir="l" state="m"/>
    <connection from="E20" to="E19" fromLane="0" toLane="0" dir="r" state="M"/>
    <connection from="E20" to="E23" fromLane="0" toLane="0" dir="s" state="M"/>
    <connection from="E20" to="E23" fromLane="1" toLane="1" dir="s" state="M"/>
    <connection from="E4" to="E0" fromLane="0" toLane="0" dir="r" state="M"/>
    <connection from="E4" to="E7" fromLane="0" toLane="0" dir="s" state="M"/>
    <connection from="E4" to="E7" fromLane="1" toLane="1" dir="s" state="M"/>
    <connection from="E4" to="E7" fromLane="2" toLane="2" dir="s" state="M"/>
    <connection from="E6" to="E1" fromLane="0" toLane="0" dir="r" state="M"/>
    <connection from="E6" to="E1" fromLane="1" toLane="1" dir="r" state="M"/>
    <connection from="E8" to="E9" fromLane="0" toLane="0" dir="s" state="M"/>
    <connection from="E8" to="E9" fromLane="1" toLane="1" dir="s" state="M"/>
    <connection from="E9" to="E11" fromLane="0" toLane="0" dir="s" state="m"/>
    <connection from="E9" to="E11" fromLane="1" toLane="1" dir="s" state="m"/>
    <connection from="E9" to="E16" fromLane="1" toLane="1" dir="l" state="m"/>

</net>
