<?xml version="1.0" encoding="UTF-8"?>

<!-- generated on 2022-05-31 13:10:02 by Eclipse SUMO netedit Version 1.13.0
<configuration xmlns:xsi="http://www.w3.org/2001/XMLSchema-instance" xsi:noNamespaceSchemaLocation="http://sumo.dlr.de/xsd/netconvertConfiguration.xsd">

    <input>
        <sumo-net-file value="scenarios/NGSIM/peachtree/map.net.xml"/>
    </input>

    <output>
        <output-file value="scenarios/NGSIM/peachtree/map.net.xml"/>
    </output>

    <processing>
        <geometry.min-radius.fix.railways value="false"/>
        <geometry.max-grade.fix value="false"/>
        <offset.disable-normalization value="true"/>
        <lefthand value="false"/>
    </processing>

    <junctions>
        <no-turnarounds value="true"/>
        <junctions.corner-detail value="5"/>
        <junctions.limit-turn-speed value="5.5"/>
        <rectangular-lane-cut value="false"/>
    </junctions>

    <pedestrian>
        <walkingareas value="false"/>
    </pedestrian>

    <report>
        <aggregate-warnings value="5"/>
    </report>

</configuration>
-->

<net version="1.9" junctionCornerDetail="5" limitTurnSpeed="5.50" xmlns:xsi="http://www.w3.org/2001/XMLSchema-instance" xsi:noNamespaceSchemaLocation="http://sumo.dlr.de/xsd/net_file.xsd">

    <location netOffset="0.00,0.00" convBoundary="-58.83,-0.09,45.34,668.01" origBoundary="-10000000000.00,-10000000000.00,10000000000.00,10000000000.00" projParameter="!"/>

    <edge id=":J1_0" function="internal">
        <lane id=":J1_0_0" index="0" speed="6.01" length="9.12" shape="11.32,61.90 8.73,61.53 6.88,62.14 5.75,63.74 5.34,66.31"/>
    </edge>
    <edge id=":J1_1" function="internal">
        <lane id=":J1_1_0" index="0" speed="13.89" length="26.87" shape="11.32,61.90 -14.71,55.24"/>
        <lane id=":J1_1_1" index="1" speed="13.89" length="26.87" shape="12.21,58.82 -13.84,52.16"/>
    </edge>
    <edge id=":J1_3" function="internal">
        <lane id=":J1_3_0" index="0" speed="12.35" length="27.99" shape="12.21,58.82 7.27,56.11 3.77,51.27 1.73,44.31 1.13,35.21"/>
    </edge>
    <edge id=":J1_4" function="internal">
        <lane id=":J1_4_0" index="0" speed="9.80" length="17.33" shape="7.51,35.29 7.91,40.72 9.27,44.91 11.61,47.86 14.90,49.58"/>
    </edge>
    <edge id=":J1_5" function="internal">
        <lane id=":J1_5_0" index="0" speed="13.89" length="31.10" shape="7.51,35.29 5.34,66.31"/>
        <lane id=":J1_5_1" index="1" speed="13.89" length="31.10" shape="4.31,35.25 2.14,66.28"/>
    </edge>
    <edge id=":J1_7" function="internal">
        <lane id=":J1_7_0" index="0" speed="10.55" length="30.51" shape="4.31,35.25 3.26,44.23 0.14,50.28 -5.43,53.03 -13.84,52.16"/>
    </edge>
    <edge id=":J1_8" function="internal">
        <lane id=":J1_8_0" index="0" speed="6.75" length="11.79" shape="-11.25,42.98 -8.68,43.12 -6.82,41.85 -5.69,39.19 -5.27,35.13"/>
    </edge>
    <edge id=":J1_9" function="internal">
        <lane id=":J1_9_0" index="0" speed="13.89" length="26.94" shape="-11.25,42.98 14.90,49.58"/>
        <lane id=":J1_9_1" index="1" speed="13.89" length="26.94" shape="-12.11,46.06 14.01,52.65"/>
        <lane id=":J1_9_2" index="2" speed="13.89" length="26.94" shape="-12.98,49.14 13.11,55.73"/>
    </edge>
    <edge id=":J1_12" function="internal">
        <lane id=":J1_12_0" index="0" speed="11.61" length="24.77" shape="-12.98,49.14 -6.30,51.85 -1.56,55.60 1.26,60.41 2.14,66.28"/>
    </edge>
    <edge id=":J1_13" function="internal">
        <lane id=":J1_13_0" index="0" speed="8.90" length="14.22" shape="-7.52,66.20 -7.93,62.18 -9.26,59.01 -11.52,56.70 -14.71,55.24"/>
    </edge>
    <edge id=":J1_14" function="internal">
        <lane id=":J1_14_0" index="0" speed="13.89" length="31.14" shape="-7.52,66.20 -5.27,35.13"/>
        <lane id=":J1_14_1" index="1" speed="13.89" length="31.14" shape="-4.32,66.23 -2.07,35.17"/>
        <lane id=":J1_14_2" index="2" speed="13.89" length="31.14" shape="-1.12,66.25 1.13,35.21"/>
    </edge>
    <edge id=":J1_17" function="internal">
        <lane id=":J1_17_0" index="0" speed="8.95" length="2.56" shape="-1.12,66.25 -0.73,63.73"/>
    </edge>
    <edge id=":J1_18" function="internal">
        <lane id=":J1_18_0" index="0" speed="8.95" length="19.20" shape="-0.73,63.73 -0.17,60.11 2.53,56.31 6.95,54.85 13.11,55.73"/>
    </edge>
    <edge id=":J10_0" function="internal">
        <lane id=":J10_0_0" index="0" speed="6.65" length="9.40" width="4.00" shape="13.98,378.40 11.34,378.76 9.45,379.82 8.31,381.57 7.92,384.01"/>
    </edge>
    <edge id=":J10_1" function="internal">
        <lane id=":J10_1_0" index="0" speed="13.89" length="27.65" shape="13.98,378.40 5.63,376.99 -0.21,373.82 -5.37,370.64 -11.68,369.22"/>
        <lane id=":J10_1_1" index="1" speed="13.89" length="27.65" shape="13.97,375.20 5.61,373.79 -0.23,370.62 -5.39,367.44 -11.70,366.02"/>
    </edge>
    <edge id=":J10_3" function="internal">
        <lane id=":J10_3_0" index="0" speed="10.86" length="26.95" shape="13.95,372.00 7.26,370.91 2.46,367.55 -0.45,361.91 -1.48,354.01"/>
    </edge>
    <edge id=":J10_4" function="internal">
        <lane id=":J10_4_0" index="0" speed="7.28" length="11.50" shape="8.22,353.92 8.61,357.65 9.69,360.31 11.46,361.90 13.91,362.42"/>
        <lane id=":J10_4_1" index="1" speed="8.64" length="16.61" shape="5.02,353.95 5.63,359.07 7.32,362.72 10.08,364.91 13.92,365.62"/>
    </edge>
    <edge id=":J10_6" function="internal">
        <lane id=":J10_6_0" index="0" speed="13.89" length="30.15" width="4.00" shape="5.02,353.95 7.92,384.01"/>
        <lane id=":J10_6_1" index="1" speed="13.89" length="30.15" width="4.00" shape="1.82,353.98 3.92,384.00"/>
    </edge>
    <edge id=":J10_8" function="internal">
        <lane id=":J10_8_0" index="0" speed="9.53" length="5.64" shape="1.82,353.98 1.03,359.22 0.84,359.50"/>
    </edge>
    <edge id=":J10_18" function="internal">
        <lane id=":J10_18_0" index="0" speed="9.53" length="15.01" shape="0.84,359.50 -1.49,362.97 -5.73,365.24 -11.70,366.02"/>
    </edge>
    <edge id=":J10_9" function="internal">
        <lane id=":J10_9_0" index="0" speed="6.88" length="10.27" shape="-11.74,359.67 -8.63,359.31 -6.42,358.25 -5.10,356.49 -4.68,354.04"/>
    </edge>
    <edge id=":J10_10" function="internal">
        <lane id=":J10_10_0" index="0" speed="13.89" length="26.52" shape="-11.74,359.67 -5.36,360.59 -0.10,362.65 5.76,364.71 13.92,365.62"/>
        <lane id=":J10_10_1" index="1" speed="13.89" length="26.52" shape="-11.72,362.87 -5.34,363.79 -0.08,365.85 5.78,367.91 13.94,368.82"/>
    </edge>
    <edge id=":J10_12" function="internal">
        <lane id=":J10_12_0" index="0" speed="11.36" length="29.83" width="4.00" shape="-11.72,362.87 -4.85,364.17 0.05,368.12 2.97,374.73 3.92,384.00"/>
    </edge>
    <edge id=":J10_13" function="internal">
        <lane id=":J10_13_0" index="0" speed="8.70" length="17.07" shape="-6.12,383.96 -6.45,377.50 -7.49,372.89 -9.23,370.13 -11.68,369.22"/>
    </edge>
    <edge id=":J10_14" function="internal">
        <lane id=":J10_14_0" index="0" speed="13.89" length="29.98" shape="-6.12,383.96 -4.68,354.04"/>
        <lane id=":J10_14_1" index="1" speed="13.89" length="29.98" shape="-2.92,383.97 -1.48,354.01"/>
    </edge>
    <edge id=":J10_16" function="internal">
        <lane id=":J10_16_0" index="0" speed="11.14" length="12.21" shape="-2.92,383.97 -1.84,375.97 0.16,372.35"/>
        <lane id=":J10_16_1" index="1" speed="10.12" length="3.75" shape="0.28,383.99 0.77,380.27"/>
    </edge>
    <edge id=":J10_19" function="internal">
        <lane id=":J10_19_0" index="0" speed="11.14" length="16.13" shape="0.16,372.35 1.32,370.25 6.58,366.80 13.92,365.62"/>
    </edge>
    <edge id=":J10_20" function="internal">
        <lane id=":J10_20_0" index="0" speed="10.12" length="19.47" shape="0.77,380.27 1.15,377.37 3.72,372.64 7.98,369.79 13.94,368.82"/>
    </edge>
    <edge id=":J11_0" function="internal">
        <lane id=":J11_0_0" index="0" speed="8.96" length="13.85" shape="17.14,615.56 13.93,617.07 11.63,619.32 10.24,622.33 9.77,626.07"/>
        <lane id=":J11_0_1" index="1" speed="10.13" length="17.93" shape="16.18,612.51 12.00,614.47 9.00,617.38 7.19,621.24 6.57,626.06"/>
    </edge>
    <edge id=":J11_2" function="internal">
        <lane id=":J11_2_0" index="0" speed="13.89" length="29.38" shape="16.18,612.51 7.20,615.44 0.46,617.76 -5.48,619.63 -12.05,621.18"/>
        <lane id=":J11_2_1" index="1" speed="13.89" length="29.38" shape="15.22,609.46 6.37,612.35 -0.26,614.65 -6.12,616.50 -12.66,618.04"/>
    </edge>
    <edge id=":J11_4" function="internal">
        <lane id=":J11_4_0" index="0" speed="9.51" length="25.01" shape="15.22,609.46 7.62,610.83 2.17,609.58 -1.14,605.72 -2.31,599.23"/>
    </edge>
    <edge id=":J11_5" function="internal">
        <lane id=":J11_5_0" index="0" speed="5.95" length="9.08" shape="7.43,599.12 7.80,601.70 8.91,603.27 10.76,603.85 13.33,603.43"/>
    </edge>
    <edge id=":J11_6" function="internal">
        <lane id=":J11_6_0" index="0" speed="13.89" length="27.01" shape="7.43,599.12 9.77,626.07"/>
        <lane id=":J11_6_1" index="1" speed="13.89" length="27.01" shape="4.23,599.15 6.57,626.06"/>
        <lane id=":J11_6_2" index="2" speed="13.89" length="27.01" shape="1.03,599.19 3.37,626.04"/>
    </edge>
    <edge id=":J11_9" function="internal">
        <lane id=":J11_9_0" index="0" speed="11.41" length="7.67" shape="1.03,599.19 0.19,606.43 0.03,606.77"/>
    </edge>
    <edge id=":J11_19" function="internal">
        <lane id=":J11_19_0" index="0" speed="11.41" length="17.90" shape="0.03,606.77 -2.37,611.99 -6.66,615.86 -12.66,618.04"/>
    </edge>
    <edge id=":J11_10" function="internal">
        <lane id=":J11_10_0" index="0" speed="8.59" length="14.21" shape="-14.51,608.57 -10.54,607.31 -7.71,605.34 -6.04,602.66 -5.50,599.26"/>
    </edge>
    <edge id=":J11_11" function="internal">
        <lane id=":J11_11_0" index="0" speed="13.89" length="28.52" shape="-14.51,608.57 -5.64,607.03 1.04,606.09 6.91,605.11 13.33,603.43"/>
        <lane id=":J11_11_1" index="1" speed="13.89" length="28.52" shape="-13.90,611.71 -4.90,610.14 1.89,609.18 7.84,608.17 14.29,606.48"/>
    </edge>
    <edge id=":J11_13" function="internal">
        <lane id=":J11_13_0" index="0" speed="10.74" length="30.46" shape="-13.90,611.71 -4.94,610.86 1.47,612.67 5.31,617.58 6.57,626.06"/>
        <lane id=":J11_13_1" index="1" speed="9.59" length="24.02" shape="-13.28,614.85 -5.97,614.31 -0.76,616.00 2.35,619.91 3.37,626.04"/>
    </edge>
    <edge id=":J11_15" function="internal">
        <lane id=":J11_15_0" index="0" speed="6.12" length="9.06" shape="-6.24,625.99 -6.59,623.46 -7.67,621.81 -9.49,621.05 -12.05,621.18"/>
    </edge>
    <edge id=":J11_16" function="internal">
        <lane id=":J11_16_0" index="0" speed="13.89" length="26.77" shape="-6.24,625.99 -5.50,599.26"/>
        <lane id=":J11_16_1" index="1" speed="13.89" length="26.77" shape="-3.04,626.01 -2.31,599.23"/>
    </edge>
    <edge id=":J11_18" function="internal">
        <lane id=":J11_18_0" index="0" speed="12.14" length="3.27" shape="0.16,626.02 0.59,622.78"/>
    </edge>
    <edge id=":J11_20" function="internal">
        <lane id=":J11_20_0" index="0" speed="12.14" length="22.73" shape="0.59,622.78 1.08,619.13 3.73,613.57 8.14,609.36 14.29,606.48"/>
    </edge>
    <edge id=":J15_0" function="internal">
        <lane id=":J15_0_0" index="0" speed="6.74" length="9.69" width="4.00" shape="13.57,492.54 10.92,492.83 9.02,493.91 7.88,495.77 7.50,498.41"/>
    </edge>
    <edge id=":J15_1" function="internal">
        <lane id=":J15_1_0" index="0" speed="13.89" length="12.00" width="4.00" shape="7.53,486.41 7.50,498.41"/>
        <lane id=":J15_1_1" index="1" speed="13.89" length="12.00" width="4.00" shape="3.53,486.39 3.50,498.40"/>
    </edge>
    <edge id=":J17_0" function="internal">
        <lane id=":J17_0_0" index="0" speed="13.89" length="8.16" shape="7.24,582.02 7.40,590.01"/>
        <lane id=":J17_0_1" index="1" speed="13.89" length="8.16" shape="3.24,582.01 3.39,584.40 3.71,586.01 4.05,587.63 4.20,590.02"/>
        <lane id=":J17_0_2" index="2" speed="13.89" length="8.16" shape="3.24,582.01 2.89,584.43 2.11,586.02 1.35,587.60 1.00,590.02"/>
    </edge>
    <edge id=":J18_0" function="internal">
        <lane id=":J18_0_0" index="0" speed="13.89" length="8.17" shape="-5.61,590.38 -5.81,587.98 -6.22,586.37 -6.62,584.75 -6.79,582.36"/>
        <lane id=":J18_0_1" index="1" speed="13.89" length="8.17" shape="-2.41,590.34 -2.61,587.96 -3.02,586.35 -3.42,584.75 -3.59,582.37"/>
        <lane id=":J18_0_2" index="2" speed="13.89" length="8.17" shape="-2.41,590.34 -2.11,587.94 -1.42,586.36 -0.72,584.78 -0.39,582.38"/>
    </edge>
    <edge id=":J4_0" function="internal">
        <lane id=":J4_0_0" index="0" speed="8.57" length="17.14" shape="-8.03,234.32 -8.66,228.28 -10.14,224.06 -12.47,221.64 -15.66,221.04"/>
    </edge>
    <edge id=":J4_1" function="internal">
        <lane id=":J4_1_0" index="0" speed="13.89" length="33.04" shape="-8.03,234.32 -9.18,201.17"/>
        <lane id=":J4_1_1" index="1" speed="13.89" length="33.04" shape="-4.83,234.23 -5.98,201.21"/>
        <lane id=":J4_1_2" index="2" speed="13.89" length="33.04" shape="-1.64,234.14 -2.78,201.25"/>
    </edge>
    <edge id=":J4_4" function="internal">
        <lane id=":J4_4_0" index="0" speed="13.55" length="8.38" shape="-1.64,234.14 -1.14,225.77"/>
    </edge>
    <edge id=":J4_17" function="internal">
        <lane id=":J4_17_0" index="0" speed="13.55" length="22.20" shape="-1.14,225.77 -1.09,224.85 1.15,217.43 5.09,211.88 10.72,208.21"/>
    </edge>
    <edge id=":J4_5" function="internal">
        <lane id=":J4_5_0" index="0" speed="11.76" length="22.87" shape="13.19,214.06 9.38,216.69 6.72,220.88 5.21,226.63 4.87,233.95"/>
    </edge>
    <edge id=":J4_6" function="internal">
        <lane id=":J4_6_0" index="0" speed="13.89" length="29.29" shape="13.19,214.06 6.19,216.67 -0.95,218.69 -8.24,220.14 -15.66,221.04"/>
        <lane id=":J4_6_1" index="1" speed="13.89" length="29.29" shape="11.94,211.11 5.10,213.68 -1.71,215.62 -8.66,216.99 -15.93,217.85"/>
    </edge>
    <edge id=":J4_8" function="internal">
        <lane id=":J4_8_0" index="0" speed="8.82" length="22.95" shape="11.94,211.11 5.43,212.85 0.80,211.78 -1.94,207.92 -2.78,201.25"/>
    </edge>
    <edge id=":J4_9" function="internal">
        <lane id=":J4_9_0" index="0" speed="5.80" length="9.15" shape="3.62,201.33 3.95,203.99 5.04,205.53 6.88,205.96 9.47,205.26"/>
    </edge>
    <edge id=":J4_10" function="internal">
        <lane id=":J4_10_0" index="0" speed="13.89" length="32.72" shape="3.62,201.33 4.87,233.95"/>
        <lane id=":J4_10_1" index="1" speed="13.89" length="32.72" shape="0.42,201.29 1.67,234.04"/>
    </edge>
    <edge id=":J4_12" function="internal">
        <lane id=":J4_12_0" index="0" speed="11.06" length="3.66" shape="0.42,201.29 -0.17,204.90"/>
    </edge>
    <edge id=":J4_18" function="internal">
        <lane id=":J4_18_0" index="0" speed="11.06" length="22.34" shape="-0.17,204.90 -0.68,208.02 -3.77,213.03 -8.85,216.31 -15.93,217.85"/>
    </edge>
    <edge id=":J4_13" function="internal">
        <lane id=":J4_13_0" index="0" speed="8.24" length="13.98" shape="-16.38,211.49 -13.28,210.62 -11.04,208.61 -9.68,205.46 -9.18,201.17"/>
    </edge>
    <edge id=":J4_14" function="internal">
        <lane id=":J4_14_0" index="0" speed="13.89" length="27.22" shape="-16.38,211.49 -9.43,210.71 -3.17,209.52 2.95,207.76 9.47,205.26"/>
        <lane id=":J4_14_1" index="1" speed="13.89" length="27.22" shape="-16.11,214.68 -9.01,213.86 -2.42,212.59 4.04,210.74 10.72,208.21"/>
    </edge>
    <edge id=":J4_16" function="internal">
        <lane id=":J4_16_0" index="0" speed="11.25" length="30.29" shape="-16.11,214.68 -8.56,215.34 -3.07,218.79 0.34,225.03 1.67,234.04"/>
    </edge>
    <edge id=":J7_0" function="internal">
        <lane id=":J7_0_0" index="0" speed="13.89" length="8.20" shape="-4.68,353.71 -4.75,345.84"/>
        <lane id=":J7_0_1" index="1" speed="13.89" length="8.20" shape="-1.48,353.67 -1.55,345.74"/>
        <lane id=":J7_0_2" index="2" speed="13.89" length="8.20" shape="-1.48,353.67 -0.99,351.21 0.12,349.66 1.21,348.11 1.65,345.65"/>
    </edge>
    <edge id=":J7_3" function="internal">
        <lane id=":J7_3_0" index="0" speed="13.89" length="8.32" shape="8.05,345.46 8.22,353.55"/>
        <lane id=":J7_3_1" index="1" speed="13.89" length="8.32" shape="4.85,345.55 5.02,353.59"/>
        <lane id=":J7_3_2" index="2" speed="13.89" length="8.32" shape="4.85,345.55 4.42,348.03 3.36,349.59 2.29,351.15 1.82,353.63"/>
    </edge>

    <edge id="-E0" from="J1" to="J0" priority="-1" shape="2.73,35.23 3.18,-0.09">
        <lane id="-E0_0" index="0" speed="13.89" length="35.32" shape="-5.27,35.13 -4.82,-0.19"/>
        <lane id="-E0_1" index="1" speed="13.89" length="35.32" shape="-2.07,35.17 -1.62,-0.15"/>
        <lane id="-E0_2" index="2" speed="13.89" length="35.32" shape="1.13,35.21 1.58,-0.11"/>
    </edge>
    <edge id="-E1" from="J2" to="J1" priority="-1" shape="44.72,66.59 11.36,56.91">
        <lane id="-E1_0" index="0" speed="13.89" length="33.39" shape="43.38,71.20 11.32,61.90"/>
        <lane id="-E1_1" index="1" speed="13.89" length="33.39" shape="44.27,68.13 12.21,58.82"/>
    </edge>
    <edge id="-E10" from="J11" to="J18" priority="-1" spreadType="center" shape="-3.79,609.40 -4.01,589.97">
        <lane id="-E10_0" index="0" speed="13.89" length="8.89" shape="-5.50,599.26 -5.61,590.38"/>
        <lane id="-E10_1" index="1" speed="13.89" length="8.89" shape="-2.31,599.23 -2.41,590.34"/>
    </edge>
    <edge id="-E10.28" from="J18" to="J10" priority="-1" spreadType="center" shape="-3.59,582.75 -2.92,383.78">
        <lane id="-E10.28_0" index="0" speed="13.89" length="198.39" shape="-6.79,582.36 -6.12,383.96"/>
        <lane id="-E10.28_1" index="1" speed="13.89" length="198.39" shape="-3.59,582.37 -2.92,383.97"/>
        <lane id="-E10.28_2" index="2" speed="13.89" length="198.39" shape="-0.39,582.38 0.28,383.99"/>
    </edge>
    <edge id="-E11" from="J12" to="J10" priority="-1" spreadType="center" shape="40.51,375.03 2.86,375.26">
        <lane id="-E11_0" index="0" speed="13.89" length="26.06" shape="40.05,378.24 13.98,378.40"/>
        <lane id="-E11_1" index="1" speed="13.89" length="26.06" shape="40.03,375.04 13.97,375.20"/>
        <lane id="-E11_2" index="2" speed="13.89" length="26.06" shape="40.01,371.84 13.95,372.00"/>
    </edge>
    <edge id="-E12" from="J13" to="J10" priority="-1" spreadType="center" shape="-36.85,361.38 -3.59,361.24">
        <lane id="-E12_0" index="0" speed="13.89" length="24.90" shape="-36.64,359.78 -11.74,359.67"/>
        <lane id="-E12_1" index="1" speed="13.89" length="24.90" shape="-36.62,362.98 -11.72,362.87"/>
    </edge>
    <edge id="-E13" from="J14" to="J11" priority="-1">
        <lane id="-E13_0" index="0" speed="13.89" length="41.98" shape="-6.45,667.97 -6.24,625.99"/>
        <lane id="-E13_1" index="1" speed="13.89" length="41.98" shape="-3.25,667.99 -3.04,626.01"/>
        <lane id="-E13_2" index="2" speed="13.89" length="41.98" shape="-0.05,668.00 0.16,626.02"/>
    </edge>
    <edge id="-E2" from="J3" to="J1" priority="-1" shape="-44.27,41.90 -10.51,51.51">
        <lane id="-E2_0" index="0" speed="13.89" length="32.07" shape="-42.08,34.21 -11.25,42.98"/>
        <lane id="-E2_1" index="1" speed="13.89" length="32.07" shape="-42.96,37.28 -12.11,46.06"/>
        <lane id="-E2_2" index="2" speed="13.89" length="32.07" shape="-43.83,40.36 -12.98,49.14"/>
    </edge>
    <edge id="-E3" from="J4" to="J1" priority="-1" shape="-1.20,202.76 0.61,55.51">
        <lane id="-E3_0" index="0" speed="13.89" length="134.99" shape="-9.18,201.17 -7.52,66.20"/>
        <lane id="-E3_1" index="1" speed="13.89" length="134.99" shape="-5.98,201.21 -4.32,66.23"/>
        <lane id="-E3_2" index="2" speed="13.89" length="134.99" shape="-2.78,201.25 -1.12,66.25"/>
    </edge>
    <edge id="-E4" from="J5" to="J4" priority="-1" shape="36.85,198.91 9.77,210.29">
        <lane id="-E4_0" index="0" speed="13.89" length="27.69" shape="38.71,203.34 13.19,214.06"/>
        <lane id="-E4_1" index="1" speed="13.89" length="27.69" shape="37.47,200.39 11.94,211.11"/>
    </edge>
    <edge id="-E5" from="J6" to="J4" priority="-1" shape="-58.83,219.88 -15.98,216.27">
        <lane id="-E5_0" index="0" speed="13.89" length="43.00" shape="-59.23,215.10 -16.38,211.49"/>
        <lane id="-E5_1" index="1" speed="13.89" length="43.00" shape="-58.96,218.29 -16.11,214.68"/>
    </edge>
    <edge id="-E6" from="J7" to="J4" priority="-1" shape="3.29,346.93 -0.04,233.98">
        <lane id="-E6_0" index="0" speed="13.89" length="111.56" shape="-4.75,345.84 -8.03,234.32"/>
        <lane id="-E6_1" index="1" speed="13.89" length="111.56" shape="-1.55,345.74 -4.83,234.23"/>
        <lane id="-E6_2" index="2" speed="13.89" length="111.56" shape="1.65,345.65 -1.64,234.14"/>
    </edge>
    <edge id="-E7" from="J8" to="J11" priority="-1" shape="45.34,598.46 8.99,609.71">
        <lane id="-E7_0" index="0" speed="13.89" length="32.01" shape="47.71,606.10 17.14,615.56"/>
        <lane id="-E7_1" index="1" speed="13.89" length="32.01" shape="46.76,603.05 16.18,612.51"/>
        <lane id="-E7_2" index="2" speed="13.89" length="32.01" shape="45.81,599.99 15.22,609.46"/>
    </edge>
    <edge id="-E8" from="J9" to="J11" priority="-1" shape="-42.26,622.19 -12.63,616.35">
        <lane id="-E8_0" index="0" speed="13.89" length="29.85" shape="-43.81,614.34 -14.51,608.57"/>
        <lane id="-E8_1" index="1" speed="13.89" length="29.85" shape="-43.19,617.48 -13.90,611.71"/>
        <lane id="-E8_2" index="2" speed="13.89" length="29.85" shape="-42.57,620.62 -13.28,614.85"/>
    </edge>
    <edge id="-E9" from="J10" to="J7" priority="-1" spreadType="center" shape="-2.93,370.74 -3.14,346.97">
        <lane id="-E9_0" index="0" speed="13.89" length="0.33" shape="-4.68,354.04 -4.68,353.71"/>
        <lane id="-E9_1" index="1" speed="13.89" length="0.33" shape="-1.48,354.01 -1.48,353.67"/>
    </edge>
    <edge id="E0" from="J0" to="J1" priority="-1" shape="3.18,-0.09 2.68,37.23">
        <lane id="E0_0" index="0" speed="13.89" length="35.32" shape="7.98,-0.03 7.51,35.29"/>
        <lane id="E0_1" index="1" speed="13.89" length="35.32" shape="4.78,-0.07 4.31,35.25"/>
    </edge>
    <edge id="E1" from="J1" to="J2" priority="-1" shape="11.32,56.87 44.72,66.59">
        <lane id="E1_0" index="0" speed="13.89" length="33.38" shape="14.90,49.58 46.96,58.91"/>
        <lane id="E1_1" index="1" speed="13.89" length="33.38" shape="14.01,52.65 46.06,61.98"/>
        <lane id="E1_2" index="2" speed="13.89" length="33.38" shape="13.11,55.73 45.17,65.05"/>
    </edge>
    <edge id="E10" from="J10" to="J15" priority="-1" spreadType="center" shape="5.92,383.89 5.52,490.29">
        <lane id="E10_0" index="0" speed="13.89" length="102.39" width="4.00" shape="7.92,384.01 7.53,486.41"/>
        <lane id="E10_1" index="1" speed="13.89" length="102.39" width="4.00" shape="3.92,384.00 3.53,486.39"/>
    </edge>
    <edge id="E10.112" from="J15" to="J17" priority="-1" spreadType="center">
        <lane id="E10.112_0" index="0" speed="13.89" length="83.62" width="4.00" shape="7.50,498.41 7.24,582.02"/>
        <lane id="E10.112_1" index="1" speed="13.89" length="83.62" width="4.00" shape="3.50,498.40 3.24,582.01"/>
    </edge>
    <edge id="E10.203" from="J17" to="J11" priority="-1" spreadType="center" shape="4.20,589.33 4.24,604.07">
        <lane id="E10.203_0" index="0" speed="13.89" length="9.14" shape="7.40,590.01 7.43,599.12"/>
        <lane id="E10.203_1" index="1" speed="13.89" length="9.14" shape="4.20,590.02 4.23,599.15"/>
        <lane id="E10.203_2" index="2" speed="13.89" length="9.14" shape="1.00,590.02 1.03,599.19"/>
    </edge>
    <edge id="E11" from="J10" to="J12" priority="-1" spreadType="center" shape="3.17,365.67 40.69,365.51">
        <lane id="E11_0" index="0" speed="13.89" length="26.06" shape="13.91,362.42 39.97,362.31"/>
        <lane id="E11_1" index="1" speed="13.89" length="26.06" shape="13.92,365.62 39.98,365.51"/>
        <lane id="E11_2" index="2" speed="13.89" length="26.06" shape="13.94,368.82 39.99,368.71"/>
    </edge>
    <edge id="E12" from="J10" to="J13" priority="-1" spreadType="center" shape="-3.92,367.58 -36.92,367.76">
        <lane id="E12_0" index="0" speed="13.89" length="24.91" shape="-11.68,369.22 -36.59,369.36"/>
        <lane id="E12_1" index="1" speed="13.89" length="24.91" shape="-11.70,366.02 -36.61,366.16"/>
    </edge>
    <edge id="E13" from="J11" to="J14" priority="-1" shape="1.85,609.47 1.55,668.01">
        <lane id="E13_0" index="0" speed="13.89" length="41.98" shape="9.77,626.07 9.55,668.05"/>
        <lane id="E13_1" index="1" speed="13.89" length="41.98" shape="6.57,626.06 6.35,668.03"/>
        <lane id="E13_2" index="2" speed="13.89" length="41.98" shape="3.37,626.04 3.15,668.02"/>
    </edge>
    <edge id="E14" from="J16" to="J15" priority="-1">
        <lane id="E14_0" index="0" speed="13.89" length="10.18" width="4.00" shape="23.74,492.85 13.57,492.54"/>
    </edge>
    <edge id="E2" from="J1" to="J3" priority="-1" shape="-10.32,51.49 -44.27,41.90">
        <lane id="E2_0" index="0" speed="13.89" length="32.08" shape="-14.71,55.24 -45.57,46.52"/>
        <lane id="E2_1" index="1" speed="13.89" length="32.08" shape="-13.84,52.16 -44.70,43.44"/>
    </edge>
    <edge id="E3" from="J1" to="J4" priority="-1" shape="0.68,55.56 -1.20,202.62">
        <lane id="E3_0" index="0" speed="13.89" length="135.02" shape="5.34,66.31 3.62,201.33"/>
        <lane id="E3_1" index="1" speed="13.89" length="135.02" shape="2.14,66.28 0.42,201.29"/>
    </edge>
    <edge id="E4" from="J4" to="J5" priority="-1" shape="9.53,210.45 36.85,198.91">
        <lane id="E4_0" index="0" speed="13.89" length="27.69" shape="9.47,205.26 34.98,194.49"/>
        <lane id="E4_1" index="1" speed="13.89" length="27.69" shape="10.72,208.21 36.23,197.44"/>
    </edge>
    <edge id="E5" from="J4" to="J6" priority="-1" shape="-16.06,216.26 -58.83,219.88">
        <lane id="E5_0" index="0" speed="13.89" length="42.92" shape="-15.66,221.04 -58.43,224.66"/>
        <lane id="E5_1" index="1" speed="13.89" length="42.92" shape="-15.93,217.85 -58.70,221.47"/>
    </edge>
    <edge id="E6" from="J4" to="J7" priority="-1" shape="0.07,234.09 3.29,346.93">
        <lane id="E6_0" index="0" speed="13.89" length="111.55" shape="4.87,233.95 8.05,345.46"/>
        <lane id="E6_1" index="1" speed="13.89" length="111.55" shape="1.67,234.04 4.85,345.55"/>
    </edge>
    <edge id="E7" from="J11" to="J8" priority="-1" shape="12.53,608.71 24.67,604.90 45.34,598.46">
        <lane id="E7_0" index="0" speed="13.89" length="32.03" shape="13.33,603.43 23.24,600.32 43.91,593.88"/>
        <lane id="E7_1" index="1" speed="13.89" length="32.03" shape="14.29,606.48 24.19,603.37 44.86,596.93"/>
    </edge>
    <edge id="E8" from="J11" to="J9" priority="-1" shape="-12.46,616.37 -42.26,622.19">
        <lane id="E8_0" index="0" speed="13.89" length="29.85" shape="-12.05,621.18 -41.34,626.90"/>
        <lane id="E8_1" index="1" speed="13.89" length="29.85" shape="-12.66,618.04 -41.95,623.76"/>
    </edge>
    <edge id="E9" from="J7" to="J10" priority="-1" spreadType="center" shape="5.00,352.26 5.23,371.21">
        <lane id="E9_0" index="0" speed="13.89" length="0.36" shape="8.22,353.55 8.22,353.92"/>
        <lane id="E9_1" index="1" speed="13.89" length="0.36" shape="5.02,353.59 5.02,353.95"/>
        <lane id="E9_2" index="2" speed="13.89" length="0.36" shape="1.82,353.63 1.82,353.98"/>
    </edge>

    <junction id="J0" type="dead_end" x="3.18" y="-0.09" incLanes="-E0_0 -E0_1 -E0_2" intLanes="" shape="3.18,-0.09 9.58,-0.00 -6.42,-0.21"/>
    <junction id="J1" type="priority" x="2.68" y="48.17" incLanes="-E1_0 -E1_1 E0_0 E0_1 -E2_0 -E2_1 -E2_2 -E3_0 -E3_1 -E3_2" intLanes=":J1_0_0 :J1_1_0 :J1_1_1 :J1_3_0 :J1_4_0 :J1_5_0 :J1_5_1 :J1_7_0 :J1_8_0 :J1_9_0 :J1_9_1 :J1_9_2 :J1_12_0 :J1_13_0 :J1_14_0 :J1_14_1 :J1_14_2 :J1_18_0" shape="10.87,63.43 15.35,48.04 13.40,47.17 11.81,45.80 10.59,43.93 9.73,41.56 9.24,38.69 9.11,35.31 -6.87,35.11 -8.54,38.29 -10.81,41.44 -15.14,56.78 -13.27,57.52 -10.56,60.00 -9.22,63.79 -9.07,66.19 6.99,66.32 7.44,64.22 9.69,63.20" customShape="1">
        <request index="0"  response="000000000000000000" foes="000000000001100000" cont="0"/>
        <request index="1"  response="111111000000000000" foes="111111000011100000" cont="0"/>
        <request index="2"  response="111111000000000000" foes="111111000011100000" cont="0"/>
        <request index="3"  response="111100111000000000" foes="111100111011100000" cont="0"/>
        <request index="4"  response="000000111000000000" foes="000000111000000000" cont="0"/>
        <request index="5"  response="100001111000001111" foes="100001111000001111" cont="0"/>
        <request index="6"  response="100001111000001111" foes="100001111000001111" cont="0"/>
        <request index="7"  response="011101111000001110" foes="011101111000001110" cont="0"/>
        <request index="8"  response="000000000000000000" foes="011100000000000000" cont="0"/>
        <request index="9"  response="000000000000000000" foes="111100000011111000" cont="0"/>
        <request index="10" response="000000000000000000" foes="111100000011111000" cont="0"/>
        <request index="11" response="000000000000000000" foes="111100000011111000" cont="0"/>
        <request index="12" response="000000000000000000" foes="111100000011100110" cont="0"/>
        <request index="13" response="000000000000000000" foes="000000000000000110" cont="0"/>
        <request index="14" response="000001111100000000" foes="000001111110001110" cont="0"/>
        <request index="15" response="000001111100000000" foes="000001111110001110" cont="0"/>