<?xml version="1.0" encoding="UTF-8"?>

<!-- generated on Mon 22 Jun 2020 03:44:04 PM CST by Eclipse SUMO netedit Version 1.5.0
<configuration xmlns:xsi="http://www.w3.org/2001/XMLSchema-instance" xsi:noNamespaceSchemaLocation="http://sumo.dlr.de/xsd/netconvertConfiguration.xsd">

    <output>
        <output-file value="/home/ming/Projects/Gitlab/corl_smarts/benchmark/scenarios/merge/map.net.xml"/>
    </output>

    <processing>
        <offset.disable-normalization value="true"/>
    </processing>

    <junctions>
        <no-turnarounds value="true"/>
    </junctions>

    <report>
        <aggregate-warnings value="5"/>
    </report>

</configuration>
-->

<net version="1.3" junctionCornerDetail="5" limitTurnSpeed="5.50" xmlns:xsi="http://www.w3.org/2001/XMLSchema-instance" xsi:noNamespaceSchemaLocation="http://sumo.dlr.de/xsd/net_file.xsd">

    <location netOffset="0.00,0.00" convBoundary="8.30,29.14,140.83,72.03" origBoundary="10000000000.00,10000000000.00,-10000000000.00,-10000000000.00" projParameter="!"/>

    <edge id=":gneJ3_0" function="internal">
        <lane id=":gneJ3_0_0" index="0" disallow="pedestrian tram rail_urban rail rail_electric rail_fast ship" speed="15.42" length="9.46" shape="38.11,44.81 40.61,46.04 42.44,46.64 44.38,46.84 47.18,46.85"/>
    </edge>
    <edge id=":gneJ3_1" function="internal">
        <lane id=":gneJ3_1_0" index="0" disallow="pedestrian tram rail_urban rail rail_electric rail_fast ship" speed="12.21" length="8.82" shape="38.97,52.58 41.15,51.17 42.80,50.41 44.59,50.11 47.18,50.05"/>
    </edge>

    <edge id="gneE17" from="gneJ21" to="gneJ3" priority="-1" spreadType="center">
        <lane id="gneE17_0" index="0" disallow="pedestrian tram rail_urban rail rail_electric rail_fast ship" speed="13.89" length="34.55" shape="10.42,72.03 38.97,52.58"/>
    </edge>
    <edge id="gneE22" from="gneJ26" to="gneJ3" priority="-1" spreadType="center">
        <lane id="gneE22_0" index="0" disallow="pedestrian tram rail_urban rail rail_electric rail_fast ship" speed="13.89" length="33.68" shape="8.30,29.14 38.11,44.81"/>
    </edge>
    <edge id="gneE5" from="gneJ3" to="gneJ7" priority="-1" spreadType="center" length="197.10">
        <lane id="gneE5_0" index="0" disallow="pedestrian tram rail_urban rail rail_electric rail_fast ship" speed="30.00" length="197.10" acceleration="1" shape="47.18,46.85 140.83,46.76"/>
        <lane id="gneE5_1" index="1" disallow="pedestrian tram rail_urban rail rail_electric rail_fast ship" speed="30.00" length="197.10" shape="47.18,50.05 140.83,49.96"/>
    </edge>

    <junction id="gneJ21" type="dead_end" x="10.42" y="72.03" incLanes="" intLanes="" shape="11.32,73.35 9.52,70.71"/>
    <junction id="gneJ26" type="dead_end" x="8.30" y="29.14" incLanes="" intLanes="" shape="7.55,30.56 9.04,27.73"/>
    <junction id="gneJ3" type="priority" x="45.04" y="48.45" incLanes="gneE22_0 gneE17_0" intLanes=":gneJ3_0_0 :gneJ3_1_0" shape="47.18,51.65 47.18,45.25 43.96,45.21 42.83,45.07 41.74,44.76 40.48,44.22 38.85,43.39 37.37,46.22 39.48,47.85 39.83,48.68 39.71,49.53 39.13,50.39 38.07,51.26 39.88,53.90 42.32,52.36 43.28,51.97 44.29,51.76 45.53,51.67">
        <request index="0" response="00" foes="00" cont="0"/>
        <request index="1" response="00" foes="00" cont="0"/>
    </junction>
    <junction id="gneJ7" type="dead_end" x="140.83" y="48.36" incLanes="gneE5_0 gneE5_1" intLanes="" shape="140.83,45.16 140.83,51.56"/>

    <connection from="gneE17" to="gneE5" fromLane="0" toLane="1" via=":gneJ3_1_0" dir="s" state="M"/>
    <connection from="gneE22" to="gneE5" fromLane="0" toLane="0" via=":gneJ3_0_0" dir="s" state="M"/>

    <connection from=":gneJ3_0" to="gneE5" fromLane="0" toLane="0" dir="s" state="M"/>
    <connection from=":gneJ3_1" to="gneE5" fromLane="0" toLane="1" dir="s" state="M"/>

</net>
