<?xml version="1.0" encoding="UTF-8"?>

<!-- generated on Wed  2 Sep 12:45:17 2020 by Eclipse SUMO netedit Version 1.5.0
<configuration xmlns:xsi="http://www.w3.org/2001/XMLSchema-instance" xsi:noNamespaceSchemaLocation="http://sumo.dlr.de/xsd/netconvertConfiguration.xsd">

    <input>
        <sumo-net-file value="/Users/kimia_hszd/dev/SMARTS/research/edmonton/intersections/scenarios/pool/4lane_t/120kmh/map.net.xml"/>
    </input>

    <output>
        <output-file value="/Users/kimia_hszd/dev/SMARTS/research/edmonton/intersections/scenarios/pool/4lane_t/120kmh/map.net.xml"/>
    </output>

    <processing>
        <geometry.min-radius.fix.railways value="false"/>
        <geometry.max-grade.fix value="false"/>
        <offset.disable-normalization value="true"/>
        <lefthand value="false"/>
    </processing>

    <junctions>
        <no-turnarounds value="true"/>
        <junctions.corner-detail value="5"/>
        <junctions.limit-turn-speed value="-1"/>
        <rectangular-lane-cut value="false"/>
    </junctions>

    <pedestrian>
        <walkingareas value="false"/>
    </pedestrian>

    <report>
        <aggregate-warnings value="5"/>
    </report>

</configuration>
-->

<net version="1.3" junctionCornerDetail="5" xmlns:xsi="http://www.w3.org/2001/XMLSchema-instance" xsi:noNamespaceSchemaLocation="http://sumo.dlr.de/xsd/net_file.xsd">

    <location netOffset="0.00,0.00" convBoundary="-108.86,-45.08,294.16,100.00" origBoundary="-10000000000.00,-10000000000.00,10000000000.00,10000000000.00" projParameter="!"/>

    <edge id=":gneJ1_0" function="internal">
        <lane id=":gneJ1_0_0" index="0" speed="13.89" length="2.58" shape="-101.39,-43.48 -102.09,-43.38 -102.59,-43.08 -102.89,-42.58 -102.99,-41.88"/>
    </edge>
    <edge id=":junction-intersection_0" function="internal">
        <lane id=":junction-intersection_0_0" index="0" speed="27.78" length="20.81" shape="110.40,104.80 89.59,104.79"/>
        <lane id=":junction-intersection_0_1" index="1" speed="27.78" length="20.81" shape="110.40,101.60 89.59,101.59"/>
    </edge>
    <edge id=":junction-intersection_2" function="internal">
        <lane id=":junction-intersection_2_0" index="0" speed="20.84" length="6.96" shape="110.40,101.60 105.15,100.85 103.73,100.00"/>
    </edge>
    <edge id=":junction-intersection_8" function="internal">
        <lane id=":junction-intersection_8_0" index="0" speed="20.84" length="12.40" shape="103.73,100.00 101.40,98.60 99.15,94.85 98.40,89.60"/>
    </edge>
    <edge id=":junction-intersection_3" function="internal">
        <lane id=":junction-intersection_3_0" index="0" speed="20.84" length="9.04" shape="104.80,89.60 105.15,92.05 106.20,93.80 107.95,94.85 110.40,95.20"/>
    </edge>
    <edge id=":junction-intersection_4" function="internal">
        <lane id=":junction-intersection_4_0" index="0" speed="20.84" length="4.04" shape="101.60,89.60 101.03,93.60"/>
    </edge>
    <edge id=":junction-intersection_9" function="internal">
        <lane id=":junction-intersection_9_0" index="0" speed="20.84" length="15.32" shape="101.03,93.60 100.85,94.85 98.60,98.60 94.85,100.85 89.59,101.59"/>
    </edge>
    <edge id=":junction-intersection_5" function="internal">
        <lane id=":junction-intersection_5_0" index="0" speed="20.84" length="9.03" shape="89.60,95.19 92.05,94.84 93.80,93.79 94.85,92.05 95.20,89.60"/>
    </edge>
    <edge id=":junction-intersection_6" function="internal">
        <lane id=":junction-intersection_6_0" index="0" speed="27.78" length="20.80" shape="89.60,95.19 110.40,95.20"/>
        <lane id=":junction-intersection_6_1" index="1" speed="27.78" length="20.80" shape="89.60,98.39 110.40,98.40"/>
    </edge>
    <edge id=":junction-south_0" function="internal">
        <lane id=":junction-south_0_0" index="0" speed="13.89" length="9.03" shape="95.20,-37.85 94.85,-40.30 93.80,-42.05 92.05,-43.10 89.60,-43.45"/>
    </edge>

    <edge id="edge-dead-end" from="gneJ1" to="gneJ2" priority="-1">
        <lane id="edge-dead-end_0" index="0" speed="13.89" length="51.04" shape="-102.99,-41.88 -102.99,9.16"/>
    </edge>
    <edge id="edge-east-EW" from="junction-east" to="junction-intersection" priority="1">
        <lane id="edge-east-EW_0" index="0" speed="27.78" length="183.76" shape="294.16,104.80 110.40,104.80"/>
        <lane id="edge-east-EW_1" index="1" speed="27.78" length="183.76" shape="294.16,101.60 110.40,101.60"/>
    </edge>
    <edge id="edge-east-WE" from="junction-intersection" to="junction-east" priority="1" spreadType="center" shape="99.98,96.80 294.16,96.80">
        <lane id="edge-east-WE_0" index="0" speed="27.78" length="183.76" shape="110.40,95.20 294.16,95.20"/>
        <lane id="edge-east-WE_1" index="1" speed="27.78" length="183.76" shape="110.40,98.40 294.16,98.40"/>
    </edge>
    <edge id="edge-south-NS" from="junction-intersection" to="junction-south" priority="1">
        <lane id="edge-south-NS_0" index="0" speed="13.89" length="127.45" shape="95.20,89.60 95.20,-37.85"/>
        <lane id="edge-south-NS_1" index="1" speed="13.89" length="127.45" shape="98.40,89.60 98.40,-37.85"/>
    </edge>
    <edge id="edge-south-SN" from="junction-south" to="junction-intersection" priority="1">
        <lane id="edge-south-SN_0" index="0" speed="13.89" length="127.45" shape="104.80,-37.85 104.80,89.60"/>
        <lane id="edge-south-SN_1" index="1" speed="13.89" length="127.45" shape="101.60,-37.85 101.60,89.60"/>
    </edge>
    <edge id="edge-south-side" from="junction-south" to="gneJ1" priority="-1">
        <lane id="edge-south-side_0" index="0" speed="13.89" length="190.99" shape="89.60,-43.45 -101.39,-43.48"/>
    </edge>
    <edge id="edge-west-EW" from="junction-intersection" to="junction-west" priority="1">
        <lane id="edge-west-EW_0" index="0" speed="27.78" length="198.46" shape="89.59,104.79 -108.86,104.64"/>
        <lane id="edge-west-EW_1" index="1" speed="27.78" length="198.46" shape="89.59,101.59 -108.86,101.44"/>
    </edge>
    <edge id="edge-west-WE" from="junction-west" to="junction-intersection" priority="1">
        <lane id="edge-west-WE_0" index="0" speed="27.78" length="198.46" shape="-108.86,95.04 89.60,95.19"/>
        <lane id="edge-west-WE_1" index="1" speed="27.78" length="198.46" shape="-108.86,98.24 89.60,98.39"/>
    </edge>

    <junction id="gneJ1" type="priority" x="-104.59" y="-45.08" incLanes="edge-south-side_0" intLanes=":gneJ1_0_0" shape="-104.59,-41.88 -101.39,-41.88 -101.39,-45.08 -103.17,-44.72 -103.79,-44.28 -104.23,-43.66 -104.50,-42.86">
        <request index="0" response="0" foes="0" cont="0"/>
    </junction>
    <junction id="gneJ2" type="dead_end" x="-104.59" y="9.16" incLanes="edge-dead-end_0" intLanes="" shape="-101.39,9.16 -104.59,9.16"/>
    <junction id="junction-east" type="dead_end" x="294.16" y="100.00" incLanes="edge-east-WE_0 edge-east-WE_1" intLanes="" shape="294.16,100.00 294.16,93.60 294.16,100.00"/>
    <junction id="junction-intersection" type="priority" x="100.00" y="100.00" incLanes="edge-east-EW_0 edge-east-EW_1 edge-south-SN_0 edge-south-SN_1 edge-west-WE_0 edge-west-WE_1" intLanes=":junction-intersection_0_0 :junction-intersection_0_1 :junction-intersection_8_0 :junction-intersection_3_0 :junction-intersection_9_0 :junction-intersection_5_0 :junction-intersection_6_0 :junction-intersection_6_1" shape="110.40,106.40 110.40,93.60 108.18,93.16 107.40,92.60 106.84,91.82 106.51,90.82 106.40,89.60 93.60,89.60 93.16,91.82 92.60,92.59 91.82,93.15 90.82,93.48 89.60,93.59 89.59,106.39" rightOfWay="edgePriority">
        <request index="0" response="00000000" foes="00010000" cont="0"/>
        <request index="1" response="00000000" foes="00010000" cont="0"/>
        <request index="2" response="11000000" foes="11010000" cont="1"/>
        <request index="3" response="11000000" foes="11000000" cont="0"/>
        <request index="4" response="11000111" foes="11000111" cont="1"/>
        <request index="5" response="00000000" foes="00000000" cont="0"/>
        <request index="6" response="00000000" foes="00011100" cont="0"/>
        <request index="7" response="00000000" foes="00011100" cont="0"/>
    </junction>
    <junction id="junction-south" type="priority" x="100.00" y="-45.05" incLanes="edge-south-NS_0 edge-south-NS_1" intLanes=":junction-south_0_0" shape="93.60,-37.85 106.40,-37.85 105.93,-40.05 104.53,-41.85 102.20,-43.25 98.93,-44.25 94.73,-44.85 89.60,-45.05 89.60,-41.85 91.82,-41.41 92.60,-40.85 93.16,-40.07 93.49,-39.07">
        <request index="0" response="0" foes="0" cont="0"/>
    </junction>
    <junction id="junction-west" type="dead_end" x="-108.86" y="99.84" incLanes="edge-west-EW_0 edge-west-EW_1" intLanes="" shape="-108.86,99.84 -108.86,106.24 -108.86,99.84"/>

    <junction id=":junction-intersection_8_0" type="internal" x="103.73" y="100.00" incLanes=":junction-intersection_2_0 edge-west-WE_0 edge-west-WE_1" intLanes=":junction-intersection_4_0 :junction-intersection_6_0 :junction-intersection_6_1"/>
    <junction id=":junction-intersection_9_0" type="internal" x="101.03" y="93.60" incLanes=":junction-intersection_4_0 edge-east-EW_0 edge-east-EW_1 edge-west-WE_0 edge-west-WE_1" intLanes=":junction-intersection_0_0 :junction-intersection_0_1 :junction-intersection_2_0 :junction-intersection_6_0 :junction-intersection_6_1"/>

    <connection from="edge-east-EW" to="edge-west-EW" fromLane="0" toLane="0" via=":junction-intersection_0_0" dir="s" state="M"/>
    <connection from="edge-east-EW" to="edge-west-EW" fromLane="1" toLane="1" via=":junction-intersection_0_1" dir="s" state="M"/>
    <connection from="edge-east-EW" to="edge-south-NS" fromLane="1" toLane="1" via=":junction-intersection_2_0" dir="l" state="m"/>
    <connection from="edge-south-NS" to="edge-south-side" fromLane="0" toLane="0" via=":junction-south_0_0" dir="r" state="M"/>
    <connection from="edge-south-SN" to="edge-east-WE" fromLane="0" toLane="0" via=":junction-intersection_3_0" dir="r" state="m"/>
    <connection from="edge-south-SN" to="edge-west-EW" fromLane="1" toLane="1" via=":junction-intersection_4_0" dir="l" state="m"/>
    <connection from="edge-south-side" to="edge-dead-end" fromLane="0" toLane="0" via=":gneJ1_0_0" dir="r" state="M"/>
    <connection from="edge-west-WE" to="edge-south-NS" fromLane="0" toLane="0" via=":junction-intersection_5_0" dir="r" state="M"/>
    <connection from="edge-west-WE" to="edge-east-WE" fromLane="0" toLane="0" via=":junction-intersection_6_0" dir="s" state="M"/>
    <connection from="edge-west-WE" to="edge-east-WE" fromLane="1" toLane="1" via=":junction-intersection_6_1" dir="s" state="M"/>

    <connection from=":gneJ1_0" to="edge-dead-end" fromLane="0" toLane="0" dir="r" state="M"/>
    <connection from=":junction-intersection_0" to="edge-west-EW" fromLane="0" toLane="0" dir="s" state="M"/>
    <connection from=":junction-intersection_0" to="edge-west-EW" fromLane="1" toLane="1" dir="s" state="M"/>
    <connection from=":junction-intersection_2" to="edge-south-NS" fromLane="0" toLane="1" via=":junction-intersection_8_0" dir="l" state="m"/>
    <connection from=":junction-intersection_8" to="edge-south-NS" fromLane="0" toLane="1" dir="l" state="M"/>
    <connection from=":junction-intersection_3" to="edge-east-WE" fromLane="0" toLane="0" dir="r" state="M"/>
    <connection from=":junction-intersection_4" to="edge-west-EW" fromLane="0" toLane="1" via=":junction-intersection_9_0" dir="l" state="m"/>
    <connection from=":junction-intersection_9" to="edge-west-EW" fromLane="0" toLane="1" dir="l" state="M"/>
    <connection from=":junction-intersection_5" to="edge-south-NS" fromLane="0" toLane="0" dir="r" state="M"/>
    <connection from=":junction-intersection_6" to="edge-east-WE" fromLane="0" toLane="0" dir="s" state="M"/>
    <connection from=":junction-intersection_6" to="edge-east-WE" fromLane="1" toLane="1" dir="s" state="M"/>
    <connection from=":junction-south_0" to="edge-south-side" fromLane="0" toLane="0" dir="r" state="M"/>

</net>
