<?xml version="1.0" encoding="UTF-8"?>

<!-- generated on 2023-05-03 16:21:24 by Eclipse SUMO netedit Version 1.16.0
<configuration xmlns:xsi="http://www.w3.org/2001/XMLSchema-instance" xsi:noNamespaceSchemaLocation="http://sumo.dlr.de/xsd/netconvertConfiguration.xsd">

    <input>
        <sumo-net-file value="./t3/training/merge_exit_sumo_t_agents_1/map.net.xml"/>
    </input>

    <output>
        <output-file value="./t3/training/merge_exit_sumo_t_agents_1/map.net.xml"/>
    </output>

    <processing>
        <geometry.min-radius.fix.railways value="false"/>
        <geometry.max-grade.fix value="false"/>
        <offset.disable-normalization value="true"/>
        <lefthand value="0"/>
    </processing>

    <junctions>
        <no-turnarounds value="true"/>
        <junctions.corner-detail value="5"/>
        <junctions.limit-turn-speed value="-1.00"/>
        <rectangular-lane-cut value="0"/>
    </junctions>

    <pedestrian>
        <walkingareas value="0"/>
    </pedestrian>

</configuration>
-->

<net version="1.16" junctionCornerDetail="5" xmlns:xsi="http://www.w3.org/2001/XMLSchema-instance" xsi:noNamespaceSchemaLocation="http://sumo.dlr.de/xsd/net_file.xsd">

    <location netOffset="0.00,0.00" convBoundary="0.00,-50.00,600.00,0.17" origBoundary="-10000000000.00,-10000000000.00,10000000000.00,10000000000.00" projParameter="!"/>

    <edge id=":J13_0" function="internal">
        <lane id=":J13_0_0" index="0" speed="13.89" length="18.42" shape="375.98,-7.95 394.40,-8.03"/>
        <lane id=":J13_0_1" index="1" speed="13.89" length="18.42" shape="375.98,-4.75 394.40,-4.83"/>
        <lane id=":J13_0_2" index="2" disallow="truck" speed="13.89" length="18.42" shape="375.97,-1.55 394.39,-1.63"/>
    </edge>
    <edge id=":J14_0" function="internal">
        <lane id=":J14_0_0" index="0" speed="13.89" length="18.51" shape="422.54,-8.00 441.05,-7.91"/>
        <lane id=":J14_0_1" index="1" speed="13.89" length="18.51" shape="422.54,-4.80 441.05,-4.71"/>
        <lane id=":J14_0_2" index="2" disallow="truck" speed="13.89" length="18.51" shape="422.53,-1.60 441.04,-1.51"/>
    </edge>
    <edge id=":J2_0" function="internal">
        <lane id=":J2_0_0" index="0" speed="13.89" length="34.55" shape="150.00,-16.46 159.40,-14.64 166.63,-11.78 173.87,-9.14 183.29,-8.00"/>
        <lane id=":J2_0_1" index="1" speed="13.89" length="34.55" shape="150.00,-13.25 159.40,-11.43 166.63,-8.57 173.87,-5.94 183.30,-4.80"/>
        <lane id=":J2_0_2" index="2" speed="13.89" length="34.55" shape="150.00,-10.04 159.40,-8.22 166.64,-5.37 173.88,-2.74 183.31,-1.60"/>
    </edge>
    <edge id=":J2_3" function="internal">
        <lane id=":J2_3_0" index="0" speed="13.89" length="33.30" shape="150.00,-8.00 183.29,-8.00"/>
        <lane id=":J2_3_1" index="1" speed="13.89" length="33.30" shape="150.00,-4.80 183.30,-4.80"/>
        <lane id=":J2_3_2" index="2" speed="13.89" length="33.30" shape="150.00,-1.60 183.31,-1.60"/>
    </edge>
    <edge id=":J3_0" function="internal">
        <lane id=":J3_0_0" index="0" speed="13.89" length="35.31" shape="499.23,-7.83 510.36,-8.30 520.56,-9.52 528.80,-11.14 534.04,-12.81"/>
    </edge>
    <edge id=":J3_1" function="internal">
        <lane id=":J3_1_0" index="0" speed="13.89" length="35.52" shape="499.23,-7.83 534.75,-8.00"/>
        <lane id=":J3_1_1" index="1" speed="13.89" length="35.52" shape="499.23,-4.63 534.75,-4.80"/>
        <lane id=":J3_1_2" index="2" speed="13.89" length="35.52" shape="499.22,-1.43 534.75,-1.60"/>
    </edge>
    <edge id=":J6_0" function="internal">
        <lane id=":J6_0_0" index="0" disallow="truck" speed="13.89" length="14.97" shape="274.67,-8.00 289.64,-8.04"/>
        <lane id=":J6_0_1" index="1" disallow="truck" speed="13.89" length="14.97" shape="274.67,-4.80 289.64,-4.84"/>
        <lane id=":J6_0_2" index="2" speed="13.89" length="14.97" shape="274.67,-1.60 289.63,-1.64"/>
    </edge>
    <edge id=":J8_0" function="internal">
        <lane id=":J8_0_0" index="0" disallow="truck" speed="13.89" length="16.52" shape="229.74,-8.09 246.27,-8.00"/>
        <lane id=":J8_0_1" index="1" disallow="truck" speed="13.89" length="16.52" shape="229.75,-4.89 246.27,-4.80"/>
        <lane id=":J8_0_2" index="2" speed="13.89" length="16.52" shape="229.76,-1.69 246.27,-1.60"/>
    </edge>

    <edge id="E0" from="J0" to="J2" priority="1" shape="0.00,-50.00 2.51,-48.65 5.02,-47.33 7.52,-46.05 10.02,-44.79 12.52,-43.56 15.01,-42.36 17.49,-41.19 19.96,-40.04 22.43,-38.93 24.89,-37.84 27.34,-36.77 29.79,-35.74 32.22,-34.73 34.64,-33.75 37.05,-32.79 39.46,-31.86 41.85,-30.95 44.22,-30.06 46.59,-29.21 48.94,-28.37 51.28,-27.56 53.60,-26.77 55.91,-26.00 58.21,-25.26 60.48,-24.54 62.75,-23.84 64.99,-23.16 67.22,-22.51 69.43,-21.87 71.62,-21.25 73.79,-20.66 75.94,-20.08 78.07,-19.53 80.18,-18.99 82.27,-18.47 84.34,-17.97 86.39,-17.49 88.41,-17.02 90.41,-16.57 92.39,-16.14 94.34,-15.73 96.27,-15.33 98.17,-14.95 100.05,-14.58 101.89,-14.23 103.72,-13.90 105.51,-13.57 107.28,-13.27 109.02,-12.97 110.72,-12.69 112.40,-12.42 114.05,-12.17 115.67,-11.93 117.26,-11.70 118.81,-11.48 120.34,-11.27 121.83,-11.08 123.28,-10.89 124.70,-10.72 126.09,-10.55 127.45,-10.40 128.76,-10.25 130.05,-10.11 131.29,-9.98 132.50,-9.86 133.67,-9.75 134.80,-9.65 135.89,-9.55 136.95,-9.46 137.96,-9.38 138.94,-9.30 139.87,-9.23 140.76,-9.16">
        <lane id="E0_0" index="0" speed="13.89" length="154.54" shape="3.79,-57.05 6.27,-55.71 8.71,-54.43 11.14,-53.18 13.59,-51.95 16.02,-50.75 18.45,-49.58 20.89,-48.43 23.29,-47.31 25.69,-46.24 28.11,-45.16 30.49,-44.12 32.88,-43.12 35.26,-42.13 37.62,-41.17 39.97,-40.24 42.32,-39.33 44.68,-38.43 46.98,-37.57 49.29,-36.74 51.59,-35.92 53.88,-35.13 56.15,-34.35 58.40,-33.60 60.64,-32.88 62.87,-32.18 65.09,-31.49 67.27,-30.83 69.45,-30.19 71.63,-29.56 73.76,-28.96 75.88,-28.38 77.98,-27.81 80.06,-27.28 82.14,-26.75 84.18,-26.24 86.19,-25.75 88.21,-25.28 90.19,-24.82 92.14,-24.38 94.06,-23.96 95.97,-23.56 97.87,-23.17 99.73,-22.80 101.57,-22.43 103.35,-22.10 105.15,-21.77 106.90,-21.45 108.63,-21.16 110.35,-20.86 112.00,-20.59 113.63,-20.32 115.24,-20.08 116.83,-19.85 118.39,-19.62 119.92,-19.40 121.39,-19.20 122.86,-19.01 124.28,-18.83 125.66,-18.66 127.01,-18.50 128.34,-18.35 129.65,-18.20 130.90,-18.06 132.10,-17.94 133.27,-17.82 134.40,-17.72 135.52,-17.62 136.59,-17.52 137.60,-17.43 138.60,-17.35 139.57,-17.28 140.48,-17.21 150.00,-16.46"/>
        <lane id="E0_1" index="1" speed="13.89" length="154.54" shape="2.27,-54.23 4.76,-52.89 7.23,-51.59 9.69,-50.33 12.16,-49.09 14.62,-47.88 17.08,-46.69 19.53,-45.54 21.96,-44.40 24.39,-43.31 26.82,-42.23 29.23,-41.18 31.64,-40.17 34.04,-39.17 36.43,-38.20 38.80,-37.26 41.18,-36.34 43.55,-35.44 45.87,-34.57 48.21,-33.73 50.53,-32.90 52.84,-32.10 55.13,-31.32 57.40,-30.56 59.67,-29.83 61.91,-29.12 64.15,-28.43 66.36,-27.76 68.56,-27.12 70.75,-26.48 72.90,-25.88 75.04,-25.29 77.17,-24.72 79.27,-24.18 81.35,-23.64 83.41,-23.13 85.45,-22.64 87.48,-22.16 89.48,-21.70 91.45,-21.26 93.39,-20.83 95.32,-20.43 97.23,-20.03 99.10,-19.66 100.96,-19.29 102.76,-18.95 104.58,-18.62 106.35,-18.30 108.09,-18.00 109.82,-17.70 111.49,-17.43 113.14,-17.16 114.76,-16.92 116.37,-16.68 117.94,-16.45 119.47,-16.23 120.97,-16.03 122.45,-15.84 123.88,-15.65 125.28,-15.49 126.64,-15.32 127.99,-15.17 129.29,-15.02 130.56,-14.88 131.78,-14.76 132.96,-14.64 134.11,-14.53 135.23,-14.43 136.31,-14.33 137.34,-14.24 138.34,-14.16 139.32,-14.09 140.24,-14.02 150.00,-13.25"/>
        <lane id="E0_2" index="2" speed="13.89" length="154.54" shape="0.76,-51.41 3.26,-50.06 5.76,-48.75 8.24,-47.48 10.73,-46.22 13.22,-45.00 15.70,-43.80 18.17,-42.64 20.63,-41.49 23.08,-40.39 25.53,-39.30 27.97,-38.24 30.41,-37.22 32.83,-36.21 35.24,-35.23 37.63,-34.28 40.03,-33.35 42.42,-32.45 44.77,-31.56 47.13,-30.72 49.47,-29.88 51.80,-29.07 54.11,-28.29 56.41,-27.52 58.70,-26.78 60.96,-26.07 63.22,-25.37 65.45,-24.69 67.67,-24.05 69.87,-23.41 72.05,-22.79 74.21,-22.20 76.35,-21.63 78.47,-21.08 80.57,-20.54 82.65,-20.02 84.71,-19.53 86.75,-19.05 88.77,-18.58 90.76,-18.13 92.72,-17.70 94.67,-17.30 96.59,-16.90 98.48,-16.52 100.35,-16.15 102.18,-15.80 104.01,-15.47 105.79,-15.15 107.55,-14.85 109.29,-14.55 110.98,-14.27 112.65,-14.00 114.29,-13.75 115.90,-13.51 117.49,-13.28 119.03,-13.06 120.55,-12.86 122.04,-12.67 123.48,-12.48 124.89,-12.31 126.27,-12.14 127.63,-11.99 128.94,-11.84 130.22,-11.70 131.45,-11.57 132.65,-11.45 133.82,-11.34 134.94,-11.24 136.03,-11.14 137.08,-11.05 138.09,-10.97 139.07,-10.90 139.99,-10.83 150.00,-10.04"/>
    </edge>
    <edge id="E1" from="J1" to="J2" priority="2">
        <lane id="E1_0" index="0" speed="13.89" length="150.00" shape="0.00,-8.00 150.00,-8.00"/>
        <lane id="E1_1" index="1" speed="13.89" length="150.00" shape="0.00,-4.80 150.00,-4.80"/>
        <lane id="E1_2" index="2" speed="13.89" length="150.00" shape="0.00,-1.60 150.00,-1.60"/>
    </edge>
    <edge id="E2" from="J2" to="J8" priority="-1" shape="183.31,0.00 229.76,-0.09">
        <lane id="E2_0" index="0" speed="13.89" length="46.45" shape="183.29,-8.00 229.74,-8.09"/>
        <lane id="E2_1" index="1" speed="13.89" length="46.45" shape="183.30,-4.80 229.75,-4.89"/>
        <lane id="E2_2" index="2" speed="13.89" length="46.45" shape="183.31,-1.60 229.76,-1.69"/>
    </edge>
    <edge id="E2.224.60" from="J13" to="J14" priority="-1" shape="394.39,-0.03 422.53,0.00">
        <lane id="E2.224.60_0" index="0" speed="13.89" length="28.14" shape="394.40,-8.03 422.54,-8.00"/>
        <lane id="E2.224.60_1" index="1" speed="13.89" length="28.14" shape="394.40,-4.83 422.54,-4.80"/>
        <lane id="E2.224.60_2" index="2" disallow="truck" speed="13.89" length="28.14" shape="394.39,-1.63 422.53,-1.60"/>
    </edge>
    <edge id="E2.224.85" from="J14" to="J3" priority="-1" shape="441.04,0.09 499.22,0.17">
        <lane id="E2.224.85_0" index="0" speed="13.89" length="58.18" shape="441.05,-7.91 499.23,-7.83"/>
        <lane id="E2.224.85_1" index="1" speed="13.89" length="58.18" shape="441.05,-4.71 499.23,-4.63"/>
        <lane id="E2.224.85_2" index="2" speed="13.89" length="58.18" shape="441.04,-1.51 499.22,-1.43"/>
    </edge>
    <edge id="E2.88" from="J8" to="J6" priority="-1" shape="246.27,0.00 260.00,0.00">
        <lane id="E2.88_0" index="0" disallow="truck" speed="13.89" length="28.40" shape="246.27,-8.00 274.67,-8.00"/>
        <lane id="E2.88_1" index="1" disallow="truck" speed="13.89" length="28.40" shape="246.27,-4.80 274.67,-4.80"/>
        <lane id="E2.88_2" index="2" speed="13.89" length="28.40" shape="246.27,-1.60 274.67,-1.60"/>
    </edge>
    <edge id="E2.91" from="J6" to="J13" priority="-1" shape="289.63,-0.04 375.97,0.05">
        <lane id="E2.91_0" index="0" speed="13.89" length="86.34" shape="289.64,-8.04 375.98,-7.95"/>
        <lane id="E2.91_1" index="1" speed="13.89" length="86.34" shape="289.64,-4.84 375.98,-4.75"/>
        <lane id="E2.91_2" index="2" speed="13.89" length="86.34" shape="289.63,-1.64 375.97,-1.55"/>
    </edge>
    <edge id="E3" from="J3" to="J4" priority="-1">
        <lane id="E3_0" index="0" speed="13.89" length="65.25" shape="534.75,-8.00 600.00,-8.00"/>
        <lane id="E3_1" index="1" speed="13.89" length="65.25" shape="534.75,-4.80 600.00,-4.80"/>
        <lane id="E3_2" index="2" speed="13.89" length="65.25" shape="534.75,-1.60 600.00,-1.60"/>
    </edge>
    <edge id="E4" from="J3" to="J5" priority="-1" shape="521.09,-6.37 522.18,-6.62 523.33,-6.92 524.53,-7.28 525.79,-7.69 527.10,-8.15 528.46,-8.67 529.87,-9.23 531.32,-9.84 532.83,-10.50 534.37,-11.20 535.96,-11.94 537.59,-12.73 539.25,-13.55 540.96,-14.41 542.69,-15.31 544.46,-16.24 546.26,-17.21 548.09,-18.21 549.95,-19.23 551.83,-20.29 553.74,-21.37 555.67,-22.48 557.62,-23.61 559.59,-24.76 561.57,-25.93 563.57,-27.13 565.58,-28.34 567.60,-29.56 569.63,-30.80 571.67,-32.05 573.72,-33.31 575.77,-34.59 577.82,-35.86 579.87,-37.15 581.92,-38.44 583.97,-39.73 586.01,-41.03 588.04,-42.32 590.07,-43.62 592.08,-44.91 594.08,-46.19 596.07,-47.47 598.05,-48.74 600.00,-50.00">
        <lane id="E4_0" index="0" speed="13.89" length="75.69" shape="534.04,-12.81 535.27,-13.39 536.89,-14.17 538.54,-14.98 540.23,-15.83 541.95,-16.73 543.71,-17.65 545.50,-18.62 547.32,-19.61 549.17,-20.63 551.04,-21.68 552.95,-22.76 554.87,-23.87 556.82,-24.99 558.78,-26.14 560.75,-27.30 562.75,-28.50 564.75,-29.71 566.77,-30.93 568.80,-32.16 570.83,-33.41 572.88,-34.67 574.92,-35.95 576.97,-37.22 579.02,-38.50 581.07,-39.79 583.11,-41.08 585.15,-42.38 587.18,-43.67 589.21,-44.97 591.22,-46.26 593.22,-47.54 595.21,-48.82 597.18,-50.09 599.13,-51.34"/>
    </edge>

    <junction id="J0" type="dead_end" x="0.00" y="-50.00" incLanes="" intLanes="" shape="0.00,-50.00 4.55,-58.45"/>
    <junction id="J1" type="dead_end" x="0.00" y="0.00" incLanes="" intLanes="" shape="0.00,0.00 0.00,-9.60"/>
    <junction id="J13" type="priority" x="388.97" y="0.00" incLanes="E2.91_0 E2.91_1 E2.91_2" intLanes=":J13_0_0 :J13_0_1 :J13_0_2" shape="394.39,-0.03 394.40,-9.63 375.98,-9.55 375.97,0.05">
        <request index="0" response="000" foes="000" cont="0"/>
        <request index="1" response="000" foes="000" cont="0"/>
        <request index="2" response="000" foes="000" cont="0"/>
    </junction>
    <junction id="J14" type="priority" x="430.91" y="0.00" incLanes="E2.224.60_0 E2.224.60_1 E2.224.60_2" intLanes=":J14_0_0 :J14_0_1 :J14_0_2" shape="441.04,0.09 441.05,-9.51 422.54,-9.60 422.53,0.00">
        <request index="0" response="000" foes="000" cont="0"/>
        <request index="1" response="000" foes="000" cont="0"/>
        <request index="2" response="000" foes="000" cont="0"/>
    </junction>
    <junction id="J2" type="priority" x="150.00" y="0.00" incLanes="E0_0 E0_1 E0_2 E1_0 E1_1 E1_2" intLanes=":J2_0_0 :J2_0_1 :J2_0_2 :J2_3_0 :J2_3_1 :J2_3_2" shape="183.31,-0.00 183.29,-9.60 176.05,-10.12 170.83,-11.48 166.63,-13.31 162.42,-15.26 157.22,-16.97 150.00,-18.06 150.00,0.00">
        <request index="0" response="111000" foes="111000" cont="0"/>
        <request index="1" response="111000" foes="111000" cont="0"/>
        <request index="2" response="111000" foes="111000" cont="0"/>
        <request index="3" response="000000" foes="000111" cont="0"/>
        <request index="4" response="000000" foes="000111" cont="0"/>
        <request index="5" response="000000" foes="000111" cont="0"/>
    </junction>
    <junction id="J3" type="priority" x="520.00" y="0.00" incLanes="E2.224.85_0 E2.224.85_1 E2.224.85_2" intLanes=":J3_0_0 :J3_1_0 :J3_1_1 :J3_1_2" shape="534.75,0.00 534.75,-9.60 534.41,-11.22 533.67,-14.40 526.85,-11.48 521.60,-9.85 517.06,-9.16 512.39,-9.08 506.73,-9.28 499.23,-9.43 499.22,0.17">
        <request index="0" response="0000" foes="0000" cont="0"/>
        <request index="1" response="0000" foes="0000" cont="0"/>
        <request index="2" response="0000" foes="0000" cont="0"/>
        <request index="3" response="0000" foes="0000" cont="0"/>
    </junction>
    <junction id="J4" type="dead_end" x="600.00" y="0.00" incLanes="E3_0 E3_1 E3_2" intLanes="" shape="600.00,-9.60 600.00,0.00"/>
    <junction id="J5" type="dead_end" x="600.00" y="-50.00" incLanes="E4_0" intLanes="" shape="598.26,-52.69 600.00,-50.00"/>
    <junction id="J6" type="priority" x="260.00" y="0.00" incLanes="E2.88_0 E2.88_1 E2.88_2" intLanes=":J6_0_0 :J6_0_1 :J6_0_2" shape="289.63,-0.04 289.64,-9.64 274.67,-9.60 274.67,0.00">
        <request index="0" response="000" foes="000" cont="0"/>
        <request index="1" response="000" foes="000" cont="0"/>
        <request index="2" response="000" foes="000" cont="0"/>
    </junction>
    <junction id="J8" type="priority" x="240.00" y="0.00" incLanes="E2_0 E2_1 E2_2" intLanes=":J8_0_0 :J8_0_1 :J8_0_2" shape="246.27,0.00 246.27,-9.60 229.74,-9.69 229.76,-0.09">
        <request index="0" response="000" foes="000" cont="0"/>
        <request index="1" response="000" foes="000" cont="0"/>
        <request index="2" response="000" foes="000" cont="0"/>
    </junction>

    <connection from="E0" to="E2" fromLane="0" toLane="0" via=":J2_0_0" dir="s" state="m"/>
    <connection from="E0" to="E2" fromLane="1" toLane="1" via=":J2_0_1" dir="s" state="m"/>
    <connection from="E0" to="E2" fromLane="2" toLane="2" via=":J2_0_2" dir="s" state="m"/>
    <connection from="E1" to="E2" fromLane="0" toLane="0" via=":J2_3_0" dir="s" state="M"/>
    <connection from="E1" to="E2" fromLane="1" toLane="1" via=":J2_3_1" dir="s" state="M"/>
    <connection from="E1" to="E2" fromLane="2" toLane="2" via=":J2_3_2" dir="s" state="M"/>
    <connection from="E2" to="E2.88" fromLane="0" toLane="0" keepClear="0" via=":J8_0_0" dir="s" state="M"/>
    <connection from="E2" to="E2.88" fromLane="1" toLane="1" keepClear="0" via=":J8_0_1" dir="s" state="M"/>
    <connection from="E2" to="E2.88" fromLane="2" toLane="2" keepClear="0" via=":J8_0_2" dir="s" state="M"/>
    <connection from="E2.224.60" to="E2.224.85" fromLane="0" toLane="0" keepClear="0" via=":J14_0_0" dir="s" state="M"/>
    <connection from="E2.224.60" to="E2.224.85" fromLane="1" toLane="1" keepClear="0" via=":J14_0_1" dir="s" state="M"/>
    <connection from="E2.224.60" to="E2.224.85" fromLane="2" toLane="2" keepClear="0" via=":J14_0_2" dir="s" state="M"/>
    <connection from="E2.224.85" to="E4" fromLane="0" toLane="0" via=":J3_0_0" dir="R" state="M"/>
    <connection from="E2.224.85" to="E3" fromLane="0" toLane="0" via=":J3_1_0" dir="s" state="M"/>
    <connection from="E2.224.85" to="E3" fromLane="1" toLane="1" via=":J3_1_1" dir="s" state="M"/>
    <connection from="E2.224.85" to="E3" fromLane="2" toLane="2" via=":J3_1_2" dir="s" state="M"/>
    <connection from="E2.88" to="E2.91" fromLane="0" toLane="0" keepClear="0" via=":J6_0_0" dir="s" state="M"/>
    <connection from="E2.88" to="E2.91" fromLane="1" toLane="1" keepClear="0" via=":J6_0_1" dir="s" state="M"/>
    <connection from="E2.88" to="E2.91" fromLane="2" toLane="2" keepClear="0" via=":J6_0_2" dir="s" state="M"/>
    <connection from="E2.91" to="E2.224.60" fromLane="0" toLane="0" keepClear="0" via=":J13_0_0" dir="s" state="M"/>
    <connection from="E2.91" to="E2.224.60" fromLane="1" toLane="1" keepClear="0" via=":J13_0_1" dir="s" state="M"/>
    <connection from="E2.91" to="E2.224.60" fromLane="2" toLane="2" keepClear="0" via=":J13_0_2" dir="s" state="M"/>

    <connection from=":J13_0" to="E2.224.60" fromLane="0" toLane="0" dir="s" state="M"/>
    <connection from=":J13_0" to="E2.224.60" fromLane="1" toLane="1" dir="s" state="M"/>
    <connection from=":J13_0" to="E2.224.60" fromLane="2" toLane="2" dir="s" state="M"/>
    <connection from=":J14_0" to="E2.224.85" fromLane="0" toLane="0" dir="s" state="M"/>
    <connection from=":J14_0" to="E2.224.85" fromLane="1" toLane="1" dir="s" state="M"/>
    <connection from=":J14_0" to="E2.224.85" fromLane="2" toLane="2" dir="s" state="M"/>
    <connection from=":J2_0" to="E2" fromLane="0" toLane="0" dir="s" state="M"/>
    <connection from=":J2_0" to="E2" fromLane="1" toLane="1" dir="s" state="M"/>
    <connection from=":J2_0" to="E2" fromLane="2" toLane="2" dir="s" state="M"/>
    <connection from=":J2_3" to="E2" fromLane="0" toLane="0" dir="s" state="M"/>
    <connection from=":J2_3" to="E2" fromLane="1" toLane="1" dir="s" state="M"/>
    <connection from=":J2_3" to="E2" fromLane="2" toLane="2" dir="s" state="M"/>
    <connection from=":J3_0" to="E4" fromLane="0" toLane="0" dir="R" state="M"/>
    <connection from=":J3_1" to="E3" fromLane="0" toLane="0" dir="s" state="M"/>
    <connection from=":J3_1" to="E3" fromLane="1" toLane="1" dir="s" state="M"/>
    <connection from=":J3_1" to="E3" fromLane="2" toLane="2" dir="s" state="M"/>
    <connection from=":J6_0" to="E2.91" fromLane="0" toLane="0" dir="s" state="M"/>
    <connection from=":J6_0" to="E2.91" fromLane="1" toLane="1" dir="s" state="M"/>
    <connection from=":J6_0" to="E2.91" fromLane="2" toLane="2" dir="s" state="M"/>
    <connection from=":J8_0" to="E2.88" fromLane="0" toLane="0" dir="s" state="M"/>
    <connection from=":J8_0" to="E2.88" fromLane="1" toLane="1" dir="s" state="M"/>
    <connection from=":J8_0" to="E2.88" fromLane="2" toLane="2" dir="s" state="M"/>

</net>
