<?xml version="1.0" encoding="UTF-8"?>

<!-- generated on Mon 11 Nov 11:39:12 2019 by Eclipse SUMO netedit Version 1.3.1
<configuration xmlns:xsi="http://www.w3.org/2001/XMLSchema-instance" xsi:noNamespaceSchemaLocation="http://sumo.dlr.de/xsd/netconvertConfiguration.xsd">

    <input>
        <sumo-net-file value="/Users/julian/src/HiWay/scenarios/cloverfield/map.net.xml"/>
    </input>

    <output>
        <output-file value="/Users/julian/src/HiWay/scenarios/cloverfield/map.net.xml"/>
    </output>

    <processing>
        <geometry.max-grade.fix value="false"/>
        <offset.disable-normalization value="true"/>
        <opposites.guess.fix-lengths value="true"/>
        <lefthand value="false"/>
    </processing>

    <junctions>
        <no-turnarounds value="true"/>
        <junctions.corner-detail value="5"/>
        <junctions.limit-turn-speed value="5.5"/>
        <rectangular-lane-cut value="false"/>
    </junctions>

    <pedestrian>
        <walkingareas value="false"/>
    </pedestrian>

</configuration>
-->

<net version="1.3" junctionCornerDetail="5" limitTurnSpeed="5.50" xmlns:xsi="http://www.w3.org/2001/XMLSchema-instance" xsi:noNamespaceSchemaLocation="http://sumo.dlr.de/xsd/net_file.xsd">

    <location netOffset="-630882.85,-4856133.12" convBoundary="-56.00,-238.42,248.00,48.00" origBoundary="-79.371708,43.846679,-79.369237,43.847436" projParameter="+proj=utm +zone=17 +ellps=WGS84 +datum=WGS84 +units=m +no_defs"/>

    <type id="highway.bridleway" priority="1" numLanes="1" speed="2.78" allow="pedestrian" oneway="1" width="2.00"/>
    <type id="highway.bus_guideway" priority="1" numLanes="1" speed="27.78" allow="bus" oneway="1"/>
    <type id="highway.cycleway" priority="1" numLanes="1" speed="8.33" allow="bicycle" oneway="0" width="1.00"/>
    <type id="highway.footway" priority="1" numLanes="1" speed="2.78" allow="pedestrian" oneway="1" width="2.00"/>
    <type id="highway.ford" priority="1" numLanes="1" speed="2.78" allow="army" oneway="0"/>
    <type id="highway.living_street" priority="2" numLanes="1" speed="2.78" disallow="tram rail_urban rail rail_electric ship" oneway="0"/>
    <type id="highway.motorway" priority="14" numLanes="2" speed="39.44" allow="private emergency authority army vip passenger hov taxi bus coach delivery truck trailer motorcycle evehicle custom1 custom2" oneway="1"/>
    <type id="highway.motorway_link" priority="9" numLanes="1" speed="22.22" allow="private emergency authority army vip passenger hov taxi bus coach delivery truck trailer motorcycle evehicle custom1 custom2" oneway="1"/>
    <type id="highway.path" priority="1" numLanes="1" speed="2.78" allow="pedestrian bicycle" oneway="1" width="2.00"/>
    <type id="highway.pedestrian" priority="1" numLanes="1" speed="2.78" allow="pedestrian" oneway="1" width="2.00"/>
    <type id="highway.primary" priority="12" numLanes="2" speed="27.78" disallow="tram rail_urban rail rail_electric ship" oneway="0"/>
    <type id="highway.primary_link" priority="7" numLanes="1" speed="22.22" disallow="tram rail_urban rail rail_electric ship" oneway="0"/>
    <type id="highway.raceway" priority="15" numLanes="2" speed="83.33" allow="vip" oneway="0"/>
    <type id="highway.residential" priority="3" numLanes="1" speed="13.89" disallow="tram rail_urban rail rail_electric ship" oneway="0"/>
    <type id="highway.secondary" priority="11" numLanes="2" speed="27.78" disallow="tram rail_urban rail rail_electric ship" oneway="0"/>
    <type id="highway.secondary_link" priority="6" numLanes="1" speed="22.22" disallow="tram rail_urban rail rail_electric ship" oneway="0"/>
    <type id="highway.service" priority="1" numLanes="1" speed="5.56" allow="pedestrian delivery bicycle" oneway="0"/>
    <type id="highway.stairs" priority="1" numLanes="1" speed="1.39" allow="pedestrian" oneway="1" width="2.00"/>
    <type id="highway.step" priority="1" numLanes="1" speed="1.39" allow="pedestrian" oneway="1" width="2.00"/>
    <type id="highway.steps" priority="1" numLanes="1" speed="1.39" allow="pedestrian" oneway="1" width="2.00"/>
    <type id="highway.tertiary" priority="10" numLanes="1" speed="22.22" disallow="tram rail_urban rail rail_electric ship" oneway="0"/>
    <type id="highway.tertiary_link" priority="5" numLanes="1" speed="22.22" disallow="tram rail_urban rail rail_electric ship" oneway="0"/>
    <type id="highway.track" priority="1" numLanes="1" speed="5.56" disallow="tram rail_urban rail rail_electric ship" oneway="0"/>
    <type id="highway.trunk" priority="13" numLanes="2" speed="27.78" disallow="pedestrian bicycle tram rail_urban rail rail_electric ship" oneway="0"/>
    <type id="highway.trunk_link" priority="8" numLanes="1" speed="22.22" disallow="pedestrian bicycle tram rail_urban rail rail_electric ship" oneway="0"/>
    <type id="highway.unclassified" priority="4" numLanes="1" speed="13.89" disallow="tram rail_urban rail rail_electric ship" oneway="0"/>
    <type id="highway.unsurfaced" priority="1" numLanes="1" speed="8.33" disallow="tram rail_urban rail rail_electric ship" oneway="0"/>
    <type id="railway.light_rail" priority="19" numLanes="1" speed="27.78" allow="rail_urban" oneway="1"/>
    <type id="railway.preserved" priority="16" numLanes="1" speed="27.78" allow="rail" oneway="1"/>
    <type id="railway.rail" priority="20" numLanes="1" speed="83.33" allow="rail rail_electric" oneway="1"/>
    <type id="railway.subway" priority="18" numLanes="1" speed="27.78" allow="rail_urban" oneway="1"/>
    <type id="railway.tram" priority="17" numLanes="1" speed="13.89" allow="tram" oneway="1"/>

    <edge id=":gneJ19_0" function="internal">
        <lane id=":gneJ19_0_0" index="0" speed="13.89" length="2.57" shape="38.57,-93.20 37.86,-93.22 37.38,-93.25 36.90,-93.25 36.21,-93.18"/>
        <lane id=":gneJ19_0_1" index="1" speed="13.89" length="2.57" shape="38.57,-96.40 37.74,-96.42 37.17,-96.45 36.61,-96.44 35.79,-96.36"/>
    </edge>
    <edge id=":gneJ19_2" function="internal">
        <lane id=":gneJ19_2_0" index="0" speed="13.89" length="3.45" shape="34.91,-102.99 35.99,-102.86 36.73,-102.80 37.48,-102.80 38.57,-102.80"/>
        <lane id=":gneJ19_2_1" index="1" speed="13.89" length="3.45" shape="35.34,-99.70 36.29,-99.60 36.95,-99.57 37.61,-99.59 38.57,-99.60"/>
    </edge>
    <edge id=":gneJ20_0" function="internal">
        <lane id=":gneJ20_0_0" index="0" speed="13.89" length="3.52" shape="157.34,-92.94 156.23,-93.10 155.46,-93.18 154.70,-93.20 153.57,-93.20"/>
        <lane id=":gneJ20_0_1" index="1" speed="13.89" length="3.52" shape="156.83,-96.25 155.87,-96.38 155.21,-96.42 154.55,-96.41 153.57,-96.40"/>
    </edge>
    <edge id=":gneJ20_2" function="internal">
        <lane id=":gneJ20_2_0" index="0" speed="13.89" length="2.51" shape="153.57,-102.80 154.25,-102.78 154.71,-102.75 155.17,-102.75 155.83,-102.83"/>
        <lane id=":gneJ20_2_1" index="1" speed="13.89" length="2.51" shape="153.57,-99.60 154.39,-99.58 154.95,-99.56 155.51,-99.57 156.32,-99.67"/>
    </edge>
    <edge id=":gneJ23_0" function="internal">
        <lane id=":gneJ23_0_0" index="0" speed="13.89" length="2.54" shape="91.20,-153.50 91.22,-154.19 91.25,-154.66 91.25,-155.13 91.18,-155.81"/>
        <lane id=":gneJ23_0_1" index="1" speed="13.89" length="2.54" shape="94.40,-153.50 94.42,-154.32 94.45,-154.88 94.44,-155.44 94.35,-156.26"/>
    </edge>
    <edge id=":gneJ23_2" function="internal">
        <lane id=":gneJ23_2_0" index="0" speed="13.89" length="3.48" shape="101.02,-157.20 100.88,-156.11 100.81,-155.36 100.80,-154.60 100.80,-153.50"/>
        <lane id=":gneJ23_2_1" index="1" speed="13.89" length="3.48" shape="97.72,-156.74 97.61,-155.78 97.57,-155.12 97.59,-154.46 97.60,-153.50"/>
    </edge>
    <edge id=":gneJ24_0" function="internal">
        <lane id=":gneJ24_0_0" index="0" speed="13.89" length="2.54" shape="100.80,-40.50 100.78,-39.81 100.75,-39.34 100.75,-38.87 100.82,-38.19"/>
        <lane id=":gneJ24_0_1" index="1" speed="13.89" length="2.54" shape="97.60,-40.50 97.58,-39.68 97.55,-39.12 97.56,-38.56 97.65,-37.74"/>
    </edge>
    <edge id=":gneJ24_2" function="internal">
        <lane id=":gneJ24_2_0" index="0" speed="13.89" length="3.48" shape="90.98,-36.80 91.12,-37.89 91.19,-38.64 91.20,-39.40 91.20,-40.50"/>
        <lane id=":gneJ24_2_1" index="1" speed="13.89" length="3.48" shape="94.28,-37.26 94.39,-38.22 94.43,-38.88 94.41,-39.54 94.40,-40.50"/>
    </edge>
    <edge id=":gneJ53_0" function="internal">
        <lane id=":gneJ53_0_0" index="0" speed="6.51" length="9.03" shape="91.20,-87.60 90.85,-90.05 89.80,-91.80 88.05,-92.85 85.60,-93.20"/>
    </edge>
    <edge id=":gneJ53_1" function="internal">
        <lane id=":gneJ53_1_0" index="0" speed="13.89" length="20.80" shape="91.20,-87.60 91.20,-108.40"/>
    </edge>
    <edge id=":gneJ53_2" function="internal">
        <lane id=":gneJ53_2_0" index="0" speed="9.26" length="11.78" shape="94.40,-87.60 95.15,-92.85 97.40,-96.60 99.20,-97.68"/>
    </edge>
    <edge id=":gneJ53_12" function="internal">
        <lane id=":gneJ53_12_0" index="0" speed="9.26" length="7.58" shape="99.20,-97.68 101.15,-98.85 106.40,-99.60"/>
    </edge>
    <edge id=":gneJ53_3" function="internal">
        <lane id=":gneJ53_3_0" index="0" speed="6.51" length="9.03" shape="106.40,-93.20 103.95,-92.85 102.20,-91.80 101.15,-90.05 100.80,-87.60"/>
    </edge>
    <edge id=":gneJ53_4" function="internal">
        <lane id=":gneJ53_4_0" index="0" speed="13.89" length="20.80" shape="106.40,-93.20 85.60,-93.20"/>
    </edge>
    <edge id=":gneJ53_5" function="internal">
        <lane id=":gneJ53_5_0" index="0" speed="9.26" length="11.78" shape="106.40,-96.40 101.15,-97.15 97.40,-99.40 96.32,-101.20"/>
    </edge>
    <edge id=":gneJ53_13" function="internal">
        <lane id=":gneJ53_13_0" index="0" speed="9.26" length="7.58" shape="96.32,-101.20 95.15,-103.15 94.40,-108.40"/>
    </edge>
    <edge id=":gneJ53_6" function="internal">
        <lane id=":gneJ53_6_0" index="0" speed="6.51" length="9.03" shape="100.80,-108.40 101.15,-105.95 102.20,-104.20 103.95,-103.15 106.40,-102.80"/>
    </edge>
    <edge id=":gneJ53_7" function="internal">
        <lane id=":gneJ53_7_0" index="0" speed="13.89" length="20.80" shape="100.80,-108.40 100.80,-87.60"/>
    </edge>
    <edge id=":gneJ53_8" function="internal">
        <lane id=":gneJ53_8_0" index="0" speed="9.26" length="11.78" shape="97.60,-108.40 96.85,-103.15 94.60,-99.40 92.80,-98.32"/>
    </edge>
    <edge id=":gneJ53_14" function="internal">
        <lane id=":gneJ53_14_0" index="0" speed="9.26" length="7.58" shape="92.80,-98.32 90.85,-97.15 85.60,-96.40"/>
    </edge>
    <edge id=":gneJ53_9" function="internal">
        <lane id=":gneJ53_9_0" index="0" speed="6.51" length="9.03" shape="85.60,-102.80 88.05,-103.15 89.80,-104.20 90.85,-105.95 91.20,-108.40"/>
    </edge>
    <edge id=":gneJ53_10" function="internal">
        <lane id=":gneJ53_10_0" index="0" speed="13.89" length="20.80" shape="85.60,-102.80 106.40,-102.80"/>
    </edge>
    <edge id=":gneJ53_11" function="internal">
        <lane id=":gneJ53_11_0" index="0" speed="9.26" length="11.78" shape="85.60,-99.60 90.85,-98.85 94.60,-96.60 95.68,-94.80"/>
    </edge>
    <edge id=":gneJ53_15" function="internal">
        <lane id=":gneJ53_15_0" index="0" speed="9.26" length="7.58" shape="95.68,-94.80 96.85,-92.85 97.60,-87.60"/>
    </edge>

    <edge id="-gneE53" from="gneJ23" to="gneJ53" priority="-1">
        <lane id="-gneE53_0" index="0" speed="13.89" length="45.10" shape="100.80,-153.50 100.80,-108.40"/>
        <lane id="-gneE53_1" index="1" speed="13.89" length="45.10" shape="97.60,-153.50 97.60,-108.40"/>
    </edge>
    <edge id="-gneE54" from="gneJ24" to="gneJ53" priority="-1">
        <lane id="-gneE54_0" index="0" speed="13.89" length="47.10" shape="91.20,-40.50 91.20,-87.60"/>
        <lane id="-gneE54_1" index="1" speed="13.89" length="47.10" shape="94.40,-40.50 94.40,-87.60"/>
    </edge>
    <edge id="-gneE55" from="gneJ20" to="gneJ53" priority="-1">
        <lane id="-gneE55_0" index="0" speed="13.89" length="47.17" shape="153.57,-93.20 106.40,-93.20"/>
        <lane id="-gneE55_1" index="1" speed="13.89" length="47.17" shape="153.57,-96.40 106.40,-96.40"/>
    </edge>
    <edge id="-gneE56" from="gneJ19" to="gneJ53" priority="-1">
        <lane id="-gneE56_0" index="0" speed="13.89" length="47.03" shape="38.57,-102.80 85.60,-102.80"/>
        <lane id="-gneE56_1" index="1" speed="13.89" length="47.03" shape="38.57,-99.60 85.60,-99.60"/>
    </edge>
    <edge id="gneE20" from="gneJ24" to="gneJ20" priority="-1" shape="96.00,-38.00 100.00,-10.00 113.96,23.92 139.56,39.89 164.00,48.00 194.00,48.00 222.00,34.00 242.00,10.00 248.00,-22.00 242.00,-58.00 221.52,-83.01 182.00,-94.00 156.00,-98.00">
        <lane id="gneE20_0" index="0" speed="13.89" length="365.64" shape="100.82,-38.19 104.67,-11.27 117.81,20.66 141.61,35.51 164.78,43.20 192.87,43.20 218.96,30.16 237.51,7.89 243.13,-22.05 237.48,-55.95 218.77,-78.79 180.99,-89.30 157.34,-92.94"/>
        <lane id="gneE20_1" index="1" speed="13.89" length="365.64" shape="97.65,-37.74 101.56,-10.42 115.24,22.83 140.24,38.43 164.26,46.40 193.62,46.40 220.99,32.72 240.50,9.30 246.38,-22.02 240.49,-57.32 220.60,-81.60 181.66,-92.43 156.83,-96.25"/>
    </edge>
    <edge id="gneE28" from="gneJ23" to="gneJ19" priority="-1" shape="96.00,-156.00 92.00,-184.00 78.76,-215.21 54.74,-232.45 22.06,-238.42 -9.80,-234.89 -32.95,-222.26 -52.00,-198.00 -54.00,-164.00 -46.00,-136.00 -26.00,-112.00 6.00,-102.00 36.00,-98.00">
        <lane id="gneE28_0" index="0" speed="13.89" length="356.20" shape="91.18,-155.81 87.34,-182.70 74.87,-212.10 52.82,-227.92 21.89,-233.57 -8.33,-230.22 -29.78,-218.52 -47.30,-196.22 -49.16,-164.53 -41.66,-138.29 -23.22,-116.16 7.04,-106.70 34.91,-102.99"/>
        <lane id="gneE28_1" index="1" speed="13.89" length="356.20" shape="94.35,-156.26 90.45,-183.57 77.46,-214.17 54.10,-230.94 22.00,-236.80 -9.31,-233.33 -31.89,-221.01 -50.43,-197.41 -52.39,-164.18 -44.55,-136.76 -25.07,-113.39 6.35,-103.57 35.34,-99.70"/>
    </edge>
    <edge id="gneE45" from="gneJ19" to="gneJ24" priority="-1" shape="36.00,-98.00 6.00,-94.00 -26.00,-84.00 -50.00,-58.00 -56.00,-24.00 -48.00,12.00 -32.00,36.00 -4.00,48.00 24.00,48.00 50.00,40.00 72.00,24.00 92.00,-10.00 96.00,-38.00">
        <lane id="gneE45_0" index="0" speed="13.89" length="363.71" shape="36.21,-93.18 7.04,-89.30 -23.34,-79.80 -45.52,-55.78 -51.11,-24.11 -43.51,10.08 -28.80,32.15 -3.01,43.20 23.28,43.20 47.82,35.65 68.37,20.71 87.38,-11.62 90.98,-36.80"/>
        <lane id="gneE45_1" index="1" speed="13.89" length="363.71" shape="35.79,-96.36 6.35,-92.43 -25.11,-82.60 -48.51,-57.26 -54.37,-24.04 -46.50,11.36 -30.93,34.72 -3.67,46.40 23.76,46.40 49.27,38.55 70.79,22.90 90.46,-10.54 94.28,-37.26"/>
    </edge>
    <edge id="gneE47" from="gneJ20" to="gneJ23" priority="-1" shape="156.00,-98.00 182.00,-102.00 220.00,-114.00 240.00,-138.00 246.00,-168.00 242.00,-202.00 220.00,-230.00 186.00,-238.00 146.00,-234.00 116.00,-214.00 100.00,-184.00 96.00,-156.00">
        <lane id="gneE47_0" index="0" speed="13.89" length="354.85" shape="155.83,-102.83 180.91,-106.69 217.21,-118.15 235.53,-140.14 241.14,-168.20 237.39,-200.10 217.26,-225.71 185.68,-233.14 147.67,-229.34 119.67,-210.68 104.63,-182.49 101.02,-157.20"/>
        <lane id="gneE47_1" index="1" speed="13.89" length="354.85" shape="156.32,-99.67 181.64,-103.56 219.07,-115.38 238.51,-138.71 244.38,-168.07 240.46,-201.37 219.09,-228.57 185.89,-236.38 146.56,-232.45 117.22,-212.89 101.54,-183.50 97.72,-156.74"/>
    </edge>
    <edge id="gneE53" from="gneJ53" to="gneJ23" priority="-1">
        <lane id="gneE53_0" index="0" speed="13.89" length="45.10" shape="91.20,-108.40 91.20,-153.50"/>
        <lane id="gneE53_1" index="1" speed="13.89" length="45.10" shape="94.40,-108.40 94.40,-153.50"/>
    </edge>
    <edge id="gneE54" from="gneJ53" to="gneJ24" priority="-1">
        <lane id="gneE54_0" index="0" speed="13.89" length="47.10" shape="100.80,-87.60 100.80,-40.50"/>
        <lane id="gneE54_1" index="1" speed="13.89" length="47.10" shape="97.60,-87.60 97.60,-40.50"/>
    </edge>
    <edge id="gneE55" from="gneJ53" to="gneJ20" priority="-1">
        <lane id="gneE55_0" index="0" speed="13.89" length="47.17" shape="106.40,-102.80 153.57,-102.80"/>
        <lane id="gneE55_1" index="1" speed="13.89" length="47.17" shape="106.40,-99.60 153.57,-99.60"/>
    </edge>
    <edge id="gneE56" from="gneJ53" to="gneJ19" priority="-1">
        <lane id="gneE56_0" index="0" speed="13.89" length="47.03" shape="85.60,-93.20 38.57,-93.20"/>
        <lane id="gneE56_1" index="1" speed="13.89" length="47.03" shape="85.60,-96.40 38.57,-96.40"/>
    </edge>

    <tlLogic id="gneJ53" type="static" programID="0" offset="0">
        <phase duration="33" state="srrGGgsrrGGg"/>
        <phase duration="3"  state="srryygsrryyg"/>
        <phase duration="6"  state="srrrrGsrrrrG"/>
        <phase duration="3"  state="srrrrysrrrry"/>
        <phase duration="33" state="GGgsrrGGgsrr"/>
        <phase duration="3"  state="yygsrryygsrr"/>
        <phase duration="6"  state="rrGsrrrrGsrr"/>
        <phase duration="3"  state="rrysrrrrysrr"/>
    </tlLogic>

    <junction id="gneJ19" type="priority" x="36.00" y="-98.00" incLanes="gneE56_0 gneE56_1 gneE28_0 gneE28_1" intLanes=":gneJ19_0_0 :gneJ19_0_1 :gneJ19_2_0 :gneJ19_2_1" shape="38.57,-91.60 38.57,-104.40 37.13,-104.40 36.62,-104.42 36.12,-104.46 35.51,-104.52 34.69,-104.63 36.41,-91.60 37.21,-91.66 37.49,-91.65 37.77,-91.63 38.11,-91.61">
        <request index="0" response="0000" foes="0000" cont="0"/>
        <request index="1" response="0000" foes="0000" cont="0"/>
        <request index="2" response="0000" foes="0000" cont="0"/>
        <request index="3" response="0000" foes="0000" cont="0"/>
    </junction>
    <junction id="gneJ20" type="priority" x="156.00" y="-98.00" incLanes="gneE20_0 gneE20_1 gneE55_0 gneE55_1" intLanes=":gneJ20_0_0 :gneJ20_0_1 :gneJ20_2_0 :gneJ20_2_1" shape="157.59,-91.28 155.59,-104.41 154.85,-104.34 154.59,-104.35 154.33,-104.37 154.01,-104.39 153.57,-104.40 153.57,-91.60 155.07,-91.59 155.59,-91.55 156.11,-91.50 156.74,-91.41">
        <request index="0" response="0000" foes="0000" cont="0"/>
        <request index="1" response="0000" foes="0000" cont="0"/>
        <request index="2" response="0000" foes="0000" cont="0"/>
        <request index="3" response="0000" foes="0000" cont="0"/>
    </junction>
    <junction id="gneJ23" type="priority" x="96.00" y="-156.00" incLanes="gneE53_0 gneE53_1 gneE47_0 gneE47_1" intLanes=":gneJ23_0_0 :gneJ23_0_1 :gneJ23_2_0 :gneJ23_2_1" shape="89.60,-153.50 102.40,-153.50 102.41,-154.96 102.43,-155.47 102.48,-155.98 102.55,-156.60 102.67,-157.44 89.59,-155.59 89.66,-154.82 89.65,-154.55 89.63,-154.27 89.61,-153.94">
        <request index="0" response="0000" foes="0000" cont="0"/>
        <request index="1" response="0000" foes="0000" cont="0"/>
        <request index="2" response="0000" foes="0000" cont="0"/>
        <request index="3" response="0000" foes="0000" cont="0"/>
    </junction>
    <junction id="gneJ24" type="priority" x="96.00" y="-38.00" incLanes="gneE54_0 gneE54_1 gneE45_0 gneE45_1" intLanes=":gneJ24_0_0 :gneJ24_0_1 :gneJ24_2_0 :gneJ24_2_1" shape="89.33,-36.56 102.41,-38.41 102.34,-39.18 102.35,-39.45 102.37,-39.73 102.39,-40.06 102.40,-40.50 89.60,-40.50 89.59,-39.04 89.57,-38.53 89.52,-38.02 89.45,-37.40">
        <request index="0" response="0000" foes="0000" cont="0"/>
        <request index="1" response="0000" foes="0000" cont="0"/>
        <request index="2" response="0000" foes="0000" cont="0"/>
        <request index="3" response="0000" foes="0000" cont="0"/>
    </junction>
    <junction id="gneJ53" type="traffic_light_right_on_red" x="96.00" y="-98.00" incLanes="-gneE54_0 -gneE54_1 -gneE55_0 -gneE55_1 -gneE53_0 -gneE53_1 -gneE56_0 -gneE56_1" intLanes=":gneJ53_0_0 :gneJ53_1_0 :gneJ53_12_0 :gneJ53_3_0 :gneJ53_4_0 :gneJ53_13_0 :gneJ53_6_0 :gneJ53_7_0 :gneJ53_14_0 :gneJ53_9_0 :gneJ53_10_0 :gneJ53_15_0" shape="89.60,-87.60 102.40,-87.60 102.84,-89.82 103.40,-90.60 104.18,-91.16 105.18,-91.49 106.40,-91.60 106.40,-104.40 104.18,-104.84 103.40,-105.40 102.84,-106.18 102.51,-107.18 102.40,-108.40 89.60,-108.40 89.16,-106.18 88.60,-105.40 87.82,-104.84 86.82,-104.51 85.60,-104.40 85.60,-91.60 87.82,-91.16 88.60,-90.60 89.16,-89.82 89.49,-88.82">
        <request index="0"  response="000000010000" foes="000000010000" cont="0"/>
        <request index="1"  response="100000000000" foes="111100010000" cont="0"/>
        <request index="2"  response="100011100000" foes="100010110000" cont="1"/>
        <request index="3"  response="000010000000" foes="000010000000" cont="0"/>
        <request index="4"  response="000010000111" foes="100010000111" cont="0"/>
        <request index="5"  response="011110000100" foes="010110000100" cont="1"/>
        <request index="6"  response="010000000000" foes="010000000000" cont="0"/>
        <request index="7"  response="000000100000" foes="010000111100" cont="0"/>
        <request index="8"  response="100000100011" foes="110000100010" cont="1"/>
        <request index="9"  response="000000000010" foes="000000000010" cont="0"/>
        <request index="10" response="000111000010" foes="000111100010" cont="0"/>
        <request index="11" response="000100011110" foes="000100010110" cont="1"/>
    </junction>

    <junction id=":gneJ53_12_0" type="internal" x="99.20" y="-97.68" incLanes=":gneJ53_2_0 -gneE53_0" intLanes=":gneJ53_4_0 :gneJ53_5_0 :gneJ53_6_0 :gneJ53_7_0 :gneJ53_10_0 :gneJ53_11_0"/>
    <junction id=":gneJ53_13_0" type="internal" x="96.32" y="-101.20" incLanes=":gneJ53_5_0 -gneE56_0" intLanes=":gneJ53_1_0 :gneJ53_2_0 :gneJ53_7_0 :gneJ53_8_0 :gneJ53_9_0 :gneJ53_10_0"/>
    <junction id=":gneJ53_14_0" type="internal" x="92.80" y="-98.32" incLanes=":gneJ53_8_0 -gneE54_0" intLanes=":gneJ53_0_0 :gneJ53_1_0 :gneJ53_4_0 :gneJ53_5_0 :gneJ53_10_0 :gneJ53_11_0"/>
    <junction id=":gneJ53_15_0" type="internal" x="95.68" y="-94.80" incLanes=":gneJ53_11_0 -gneE55_0" intLanes=":gneJ53_1_0 :gneJ53_2_0 :gneJ53_3_0 :gneJ53_4_0 :gneJ53_7_0 :gneJ53_8_0"/>

    <connection from="-gneE53" to="gneE55" fromLane="0" toLane="0" via=":gneJ53_6_0" tl="gneJ53" linkIndex="6" dir="r" state="O"/>
    <connection from="-gneE53" to="gneE54" fromLane="0" toLane="0" via=":gneJ53_7_0" tl="gneJ53" linkIndex="7" dir="s" state="O"/>
    <connection from="-gneE53" to="gneE56" fromLane="1" toLane="1" via=":gneJ53_8_0" tl="gneJ53" linkIndex="8" dir="l" state="o"/>
    <connection from="-gneE54" to="gneE56" fromLane="0" toLane="0" via=":gneJ53_0_0" tl="gneJ53" linkIndex="0" dir="r" state="O"/>
    <connection from="-gneE54" to="gneE53" fromLane="0" toLane="0" via=":gneJ53_1_0" tl="gneJ53" linkIndex="1" dir="s" state="O"/>
    <connection from="-gneE54" to="gneE55" fromLane="1" toLane="1" via=":gneJ53_2_0" tl="gneJ53" linkIndex="2" dir="l" state="o"/>
    <connection from="-gneE55" to="gneE54" fromLane="0" toLane="0" via=":gneJ53_3_0" tl="gneJ53" linkIndex="3" dir="r" state="o"/>
    <connection from="-gneE55" to="gneE56" fromLane="0" toLane="0" via=":gneJ53_4_0" tl="gneJ53" linkIndex="4" dir="s" state="o"/>
    <connection from="-gneE55" to="gneE53" fromLane="1" toLane="1" via=":gneJ53_5_0" tl="gneJ53" linkIndex="5" dir="l" state="o"/>
    <connection from="-gneE56" to="gneE53" fromLane="0" toLane="0" via=":gneJ53_9_0" tl="gneJ53" linkIndex="9" dir="r" state="o"/>
    <connection from="-gneE56" to="gneE55" fromLane="0" toLane="0" via=":gneJ53_10_0" tl="gneJ53" linkIndex="10" dir="s" state="o"/>
    <connection from="-gneE56" to="gneE54" fromLane="1" toLane="1" via=":gneJ53_11_0" tl="gneJ53" linkIndex="11" dir="l" state="o"/>
    <connection from="gneE20" to="-gneE55" fromLane="0" toLane="0" via=":gneJ20_0_0" dir="s" state="M"/>
    <connection from="gneE20" to="-gneE55" fromLane="1" toLane="1" via=":gneJ20_0_1" dir="s" state="M"/>
    <connection from="gneE28" to="-gneE56" fromLane="0" toLane="0" via=":gneJ19_2_0" dir="s" state="M"/>
    <connection from="gneE28" to="-gneE56" fromLane="1" toLane="1" via=":gneJ19_2_1" dir="s" state="M"/>
    <connection from="gneE45" to="-gneE54" fromLane="0" toLane="0" via=":gneJ24_2_0" dir="s" state="M"/>
    <connection from="gneE45" to="-gneE54" fromLane="1" toLane="1" via=":gneJ24_2_1" dir="s" state="M"/>
    <connection from="gneE47" to="-gneE53" fromLane="0" toLane="0" via=":gneJ23_2_0" dir="s" state="M"/>
    <connection from="gneE47" to="-gneE53" fromLane="1" toLane="1" via=":gneJ23_2_1" dir="s" state="M"/>
    <connection from="gneE53" to="gneE28" fromLane="0" toLane="0" via=":gneJ23_0_0" dir="s" state="M"/>
    <connection from="gneE53" to="gneE28" fromLane="1" toLane="1" via=":gneJ23_0_1" dir="s" state="M"/>
    <connection from="gneE54" to="gneE20" fromLane="0" toLane="0" via=":gneJ24_0_0" dir="s" state="M"/>
    <connection from="gneE54" to="gneE20" fromLane="1" toLane="1" via=":gneJ24_0_1" dir="s" state="M"/>
    <connection from="gneE55" to="gneE47" fromLane="0" toLane="0" via=":gneJ20_2_0" dir="s" state="M"/>
    <connection from="gneE55" to="gneE47" fromLane="1" toLane="1" via=":gneJ20_2_1" dir="s" state="M"/>
    <connection from="gneE56" to="gneE45" fromLane="0" toLane="0" via=":gneJ19_0_0" dir="s" state="M"/>
    <connection from="gneE56" to="gneE45" fromLane="1" toLane="1" via=":gneJ19_0_1" dir="s" state="M"/>

    <connection from=":gneJ19_0" to="gneE45" fromLane="0" toLane="0" dir="s" state="M"/>
    <connection from=":gneJ19_0" to="gneE45" fromLane="1" toLane="1" dir="s" state="M"/>
    <connection from=":gneJ19_2" to="-gneE56" fromLane="0" toLane="0" dir="s" state="M"/>
    <connection from=":gneJ19_2" to="-gneE56" fromLane="1" toLane="1" dir="s" state="M"/>
    <connection from=":gneJ20_0" to="-gneE55" fromLane="0" toLane="0" dir="s" state="M"/>
    <connection from=":gneJ20_0" to="-gneE55" fromLane="1" toLane="1" dir="s" state="M"/>
    <connection from=":gneJ20_2" to="gneE47" fromLane="0" toLane="0" dir="s" state="M"/>
    <connection from=":gneJ20_2" to="gneE47" fromLane="1" toLane="1" dir="s" state="M"/>
    <connection from=":gneJ23_0" to="gneE28" fromLane="0" toLane="0" dir="s" state="M"/>
    <connection from=":gneJ23_0" to="gneE28" fromLane="1" toLane="1" dir="s" state="M"/>
    <connection from=":gneJ23_2" to="-gneE53" fromLane="0" toLane="0" dir="s" state="M"/>
    <connection from=":gneJ23_2" to="-gneE53" fromLane="1" toLane="1" dir="s" state="M"/>
    <connection from=":gneJ24_0" to="gneE20" fromLane="0" toLane="0" dir="s" state="M"/>
    <connection from=":gneJ24_0" to="gneE20" fromLane="1" toLane="1" dir="s" state="M"/>
    <connection from=":gneJ24_2" to="-gneE54" fromLane="0" toLane="0" dir="s" state="M"/>
    <connection from=":gneJ24_2" to="-gneE54" fromLane="1" toLane="1" dir="s" state="M"/>
    <connection from=":gneJ53_0" to="gneE56" fromLane="0" toLane="0" dir="r" state="M"/>
    <connection from=":gneJ53_1" to="gneE53" fromLane="0" toLane="0" dir="s" state="M"/>
    <connection from=":gneJ53_2" to="gneE55" fromLane="0" toLane="1" via=":gneJ53_12_0" dir="l" state="m"/>
    <connection from=":gneJ53_12" to="gneE55" fromLane="0" toLane="1" dir="l" state="M"/>
    <connection from=":gneJ53_3" to="gneE54" fromLane="0" toLane="0" dir="r" state="M"/>
    <connection from=":gneJ53_4" to="gneE56" fromLane="0" toLane="0" dir="s" state="M"/>
    <connection from=":gneJ53_5" to="gneE53" fromLane="0" toLane="1" via=":gneJ53_13_0" dir="l" state="m"/>
    <connection from=":gneJ53_13" to="gneE53" fromLane="0" toLane="1" dir="l" state="M"/>
    <connection from=":gneJ53_6" to="gneE55" fromLane="0" toLane="0" dir="r" state="M"/>
    <connection from=":gneJ53_7" to="gneE54" fromLane="0" toLane="0" dir="s" state="M"/>
    <connection from=":gneJ53_8" to="gneE56" fromLane="0" toLane="1" via=":gneJ53_14_0" dir="l" state="m"/>
    <connection from=":gneJ53_14" to="gneE56" fromLane="0" toLane="1" dir="l" state="M"/>
    <connection from=":gneJ53_9" to="gneE53" fromLane="0" toLane="0" dir="r" state="M"/>
    <connection from=":gneJ53_10" to="gneE55" fromLane="0" toLane="0" dir="s" state="M"/>
    <connection from=":gneJ53_11" to="gneE54" fromLane="0" toLane="1" via=":gneJ53_15_0" dir="l" state="m"/>
    <connection from=":gneJ53_15" to="gneE54" fromLane="0" toLane="1" dir="l" state="M"/>

</net>
