<?xml version="1.0" encoding="UTF-8"?>

<!-- generated on Thu 22 Apr 2021 11:03:36 AM EDT by Eclipse SUMO netedit Version 1.8.0
<configuration xmlns:xsi="http://www.w3.org/2001/XMLSchema-instance" xsi:noNamespaceSchemaLocation="http://sumo.dlr.de/xsd/netconvertConfiguration.xsd">

    <input>
        <sumo-net-file value="/home/kyber/work/SMARTS/scenarios/game_of_tag_demo_map/map.net.xml"/>
    </input>

    <output>
        <output-file value="/home/kyber/work/SMARTS/scenarios/game_of_tag_demo_map/map.net.xml"/>
    </output>

    <processing>
        <geometry.min-radius.fix.railways value="false"/>
        <geometry.max-grade.fix value="false"/>
        <offset.disable-normalization value="true"/>
        <lefthand value="false"/>
    </processing>

    <junctions>
        <no-turnarounds value="true"/>
        <junctions.corner-detail value="5"/>
        <junctions.limit-turn-speed value="5.5"/>
        <rectangular-lane-cut value="false"/>
    </junctions>

    <pedestrian>
        <walkingareas value="false"/>
    </pedestrian>

    <report>
        <aggregate-warnings value="5"/>
    </report>

</configuration>
-->

<net version="1.6" junctionCornerDetail="5" limitTurnSpeed="5.50" xmlns:xsi="http://www.w3.org/2001/XMLSchema-instance" xsi:noNamespaceSchemaLocation="http://sumo.dlr.de/xsd/net_file.xsd">

    <location netOffset="0.00,0.00" convBoundary="-28.35,10.97,87.40,86.11" origBoundary="-10000000000.00,-10000000000.00,10000000000.00,10000000000.00" projParameter="!"/>

    <edge id=":gneJ10_0" function="internal">
        <lane id=":gneJ10_0_0" index="0" speed="4.07" length="7.64" shape="53.40,71.40 53.79,71.36 54.14,71.23 54.44,71.02 54.70,70.72"/>
        <lane id=":gneJ10_0_1" index="1" speed="6.39" length="7.64" shape="53.41,74.60 54.59,74.47 55.63,74.09 56.54,73.45 57.32,72.56"/>
        <lane id=":gneJ10_0_2" index="2" speed="8.07" length="7.64" shape="53.43,77.80 55.39,77.58 57.12,76.94 58.64,75.88 59.93,74.40"/>
        <lane id=":gneJ10_0_3" index="3" speed="9.46" length="7.64" shape="53.45,81.00 56.18,80.69 58.61,79.80 60.74,78.31 62.55,76.24"/>
        <lane id=":gneJ10_0_4" index="4" speed="10.67" length="7.64" shape="53.46,84.20 56.98,83.81 60.11,82.65 62.84,80.75 65.17,78.08"/>
    </edge>
    <edge id=":gneJ11_0" function="internal">
        <lane id=":gneJ11_0_0" index="0" speed="3.98" length="9.26" shape="69.65,49.45 69.88,49.03 69.96,48.59 69.91,48.16 69.71,47.71"/>
        <lane id=":gneJ11_0_1" index="1" speed="6.22" length="9.26" shape="72.27,51.29 72.95,50.01 73.21,48.71 73.05,47.40 72.46,46.07"/>
        <lane id=":gneJ11_0_2" index="2" speed="7.85" length="9.26" shape="74.88,53.13 76.02,51.00 76.46,48.83 76.18,46.65 75.21,44.43"/>
        <lane id=":gneJ11_0_3" index="3" speed="9.19" length="9.26" shape="77.50,54.97 79.10,51.98 79.70,48.96 79.32,45.89 77.95,42.79"/>
        <lane id=":gneJ11_0_4" index="4" speed="10.36" length="9.26" shape="80.12,56.82 82.17,52.97 82.95,49.08 82.46,45.13 80.70,41.15"/>
    </edge>
    <edge id=":gneJ12_0" function="internal">
        <lane id=":gneJ12_0_0" index="0" speed="4.03" length="8.29" shape="56.84,26.17 56.58,25.83 56.26,25.58 55.89,25.44 55.46,25.39"/>
        <lane id=":gneJ12_0_1" index="1" speed="6.31" length="8.29" shape="59.58,24.53 58.80,23.50 57.85,22.77 56.74,22.33 55.45,22.19"/>
        <lane id=":gneJ12_0_2" index="2" speed="7.97" length="8.29" shape="62.33,22.88 61.02,21.18 59.44,19.96 57.58,19.23 55.45,18.99"/>
        <lane id=":gneJ12_0_3" index="3" speed="9.33" length="8.29" shape="65.08,21.24 63.25,18.85 61.03,17.15 58.43,16.12 55.44,15.79"/>
        <lane id=":gneJ12_0_4" index="4" speed="10.52" length="8.29" shape="67.82,19.60 65.47,16.53 62.63,14.33 59.28,13.02 55.43,12.59"/>
    </edge>
    <edge id=":gneJ13_0" function="internal">
        <lane id=":gneJ13_0_0" index="0" speed="4.18" length="6.40" shape="9.02,25.48 8.69,25.51 8.39,25.60 8.12,25.75 7.87,25.96"/>
        <lane id=":gneJ13_0_1" index="1" speed="6.61" length="6.40" shape="9.01,22.28 8.03,22.37 7.13,22.64 6.31,23.10 5.57,23.74"/>
        <lane id=":gneJ13_0_2" index="2" speed="8.35" length="6.40" shape="9.00,19.08 7.38,19.23 5.88,19.69 4.51,20.45 3.27,21.52"/>
        <lane id=":gneJ13_0_3" index="3" speed="9.80" length="6.40" shape="9.00,15.88 6.72,16.09 4.62,16.74 2.70,17.80 0.97,19.29"/>
        <lane id=":gneJ13_0_4" index="4" speed="11.05" length="6.40" shape="8.99,12.68 6.06,12.96 3.36,13.78 0.90,15.15 -1.33,17.07"/>
    </edge>
    <edge id=":gneJ14_0" function="internal">
        <lane id=":gneJ14_0_0" index="0" speed="4.24" length="6.26" shape="-13.50,48.07 -13.75,48.34 -13.88,48.56 -13.94,48.81 -13.95,49.18"/>
        <lane id=":gneJ14_0_1" index="1" speed="6.72" length="6.26" shape="-15.80,45.84 -16.54,46.66 -16.94,47.32 -17.12,48.08 -17.15,49.18"/>
        <lane id=":gneJ14_0_2" index="2" speed="8.50" length="6.26" shape="-18.10,43.62 -19.33,44.98 -20.01,46.08 -20.29,47.35 -20.35,49.18"/>
        <lane id=":gneJ14_0_3" index="3" speed="9.97" length="6.26" shape="-20.40,41.39 -22.13,43.29 -23.07,44.84 -23.47,46.62 -23.55,49.18"/>
        <lane id=":gneJ14_0_4" index="4" speed="11.25" length="6.26" shape="-22.70,39.17 -24.92,41.61 -26.13,43.61 -26.65,45.88 -26.75,49.18"/>
    </edge>
    <edge id=":gneJ15_0" function="internal">
        <lane id=":gneJ15_0_0" index="0" speed="4.45" length="5.05" shape="-13.95,52.72 -13.94,53.02 -13.91,53.23 -13.82,53.41 -13.65,53.66"/>
        <lane id=":gneJ15_0_1" index="1" speed="7.10" length="5.05" shape="-17.15,52.72 -17.13,53.62 -17.02,54.23 -16.75,54.79 -16.25,55.53"/>
        <lane id=":gneJ15_0_2" index="2" speed="9.01" length="5.05" shape="-20.35,52.72 -20.32,54.21 -20.13,55.23 -19.68,56.17 -18.85,57.40"/>
        <lane id=":gneJ15_0_3" index="3" speed="10.58" length="5.05" shape="-23.55,52.72 -23.50,54.80 -23.25,56.24 -22.62,57.55 -21.44,59.26"/>
        <lane id=":gneJ15_0_4" index="4" speed="11.94" length="5.05" shape="-26.75,52.72 -26.69,55.40 -26.36,57.24 -25.55,58.93 -24.04,61.13"/>
    </edge>
    <edge id=":gneJ9_0" function="internal">
        <lane id=":gneJ9_0_0" index="0" speed="4.07" length="7.63" shape="-1.18,71.00 -0.91,71.30 -0.61,71.50 -0.26,71.63 0.13,71.67"/>
        <lane id=":gneJ9_0_1" index="1" speed="6.39" length="7.63" shape="-3.77,72.87 -2.99,73.75 -2.07,74.38 -1.03,74.75 0.15,74.87"/>
        <lane id=":gneJ9_0_2" index="2" speed="8.07" length="7.63" shape="-6.37,74.74 -5.06,76.20 -3.53,77.25 -1.79,77.87 0.16,78.07"/>
        <lane id=":gneJ9_0_3" index="3" speed="9.46" length="7.63" shape="-8.97,76.61 -7.13,78.66 -5.00,80.12 -2.56,80.99 0.18,81.27"/>
        <lane id=":gneJ9_0_4" index="4" speed="10.67" length="7.63" shape="-11.57,78.48 -9.21,81.11 -6.46,82.99 -3.33,84.11 0.19,84.47"/>
    </edge>

    <edge id="gneE10" from="gneJ13" to="gneJ14" priority="-1">
        <lane id="gneE10_0" index="0" speed="13.89" length="30.74" shape="7.87,25.96 -13.50,48.07"/>
        <lane id="gneE10_1" index="1" speed="13.89" length="30.74" shape="5.57,23.74 -15.80,45.84"/>
        <lane id="gneE10_2" index="2" speed="13.89" length="30.74" shape="3.27,21.52 -18.10,43.62"/>
        <lane id="gneE10_3" index="3" speed="13.89" length="30.74" shape="0.97,19.29 -20.40,41.39"/>
        <lane id="gneE10_4" index="4" speed="13.89" length="30.74" shape="-1.33,17.07 -22.70,39.17"/>
    </edge>
    <edge id="gneE11" from="gneJ14" to="gneJ15" priority="-1">
        <lane id="gneE11_0" index="0" speed="13.89" length="3.54" shape="-13.95,49.18 -13.95,52.72"/>
        <lane id="gneE11_1" index="1" speed="13.89" length="3.54" shape="-17.15,49.18 -17.15,52.72"/>
        <lane id="gneE11_2" index="2" speed="13.89" length="3.54" shape="-20.35,49.18 -20.35,52.72"/>
        <lane id="gneE11_3" index="3" speed="13.89" length="3.54" shape="-23.55,49.18 -23.55,52.72"/>
        <lane id="gneE11_4" index="4" speed="13.89" length="3.54" shape="-26.75,49.18 -26.75,52.72"/>
    </edge>
    <edge id="gneE7" from="gneJ10" to="gneJ11" priority="-1">
        <lane id="gneE7_0" index="0" speed="13.89" length="26.00" shape="54.70,70.72 69.65,49.45"/>
        <lane id="gneE7_1" index="1" speed="13.89" length="26.00" shape="57.32,72.56 72.27,51.29"/>
        <lane id="gneE7_2" index="2" speed="13.89" length="26.00" shape="59.93,74.40 74.88,53.13"/>
        <lane id="gneE7_3" index="3" speed="13.89" length="26.00" shape="62.55,76.24 77.50,54.97"/>
        <lane id="gneE7_4" index="4" speed="13.89" length="26.00" shape="65.17,78.08 80.12,56.82"/>
    </edge>
    <edge id="gneE8" from="gneJ11" to="gneJ12" priority="-1">
        <lane id="gneE8_0" index="0" speed="13.89" length="25.10" shape="69.71,47.71 56.84,26.17"/>
        <lane id="gneE8_1" index="1" speed="13.89" length="25.10" shape="72.46,46.07 59.58,24.53"/>
        <lane id="gneE8_2" index="2" speed="13.89" length="25.10" shape="75.21,44.43 62.33,22.88"/>
        <lane id="gneE8_3" index="3" speed="13.89" length="25.10" shape="77.95,42.79 65.08,21.24"/>
        <lane id="gneE8_4" index="4" speed="13.89" length="25.10" shape="80.70,41.15 67.82,19.60"/>
    </edge>
    <edge id="gneE9" from="gneJ12" to="gneJ13" priority="-1">
        <lane id="gneE9_0" index="0" speed="13.89" length="46.44" shape="55.46,25.39 9.02,25.48"/>
        <lane id="gneE9_1" index="1" speed="13.89" length="46.44" shape="55.45,22.19 9.01,22.28"/>
        <lane id="gneE9_2" index="2" speed="13.89" length="46.44" shape="55.45,18.99 9.00,19.08"/>
        <lane id="gneE9_3" index="3" speed="13.89" length="46.44" shape="55.44,15.79 9.00,15.88"/>
        <lane id="gneE9_4" index="4" speed="13.89" length="46.44" shape="55.43,12.59 8.99,12.68"/>
    </edge>
    <edge id="top" from="gneJ9" to="gneJ10" priority="-1">
        <lane id="top_0" index="0" speed="13.89" length="53.27" shape="0.13,71.67 53.40,71.40"/>
        <lane id="top_1" index="1" speed="13.89" length="53.27" shape="0.15,74.87 53.41,74.60"/>
        <lane id="top_2" index="2" speed="13.89" length="53.27" shape="0.16,78.07 53.43,77.80"/>
        <lane id="top_3" index="3" speed="13.89" length="53.27" shape="0.18,81.27 53.45,81.00"/>
        <lane id="top_4" index="4" speed="13.89" length="53.27" shape="0.19,84.47 53.46,84.20"/>
    </edge>
    <edge id="top_left" from="gneJ15" to="gneJ9" priority="-1">
        <lane id="top_left_0" index="0" speed="13.89" length="21.36" shape="-13.65,53.66 -1.18,71.00"/>
        <lane id="top_left_1" index="1" speed="13.89" length="21.36" shape="-16.25,55.53 -3.77,72.87"/>
        <lane id="top_left_2" index="2" speed="13.89" length="21.36" shape="-18.85,57.40 -6.37,74.74"/>
        <lane id="top_left_3" index="3" speed="13.89" length="21.36" shape="-21.44,59.26 -8.97,76.61"/>
        <lane id="top_left_4" index="4" speed="13.89" length="21.36" shape="-24.04,61.13 -11.57,78.48"/>
    </edge>

    <junction id="gneJ10" type="priority" x="61.73" y="85.76" incLanes="top_0 top_1 top_2 top_3 top_4" intLanes=":gneJ10_0_0 :gneJ10_0_1 :gneJ10_0_2 :gneJ10_0_3 :gneJ10_0_4" shape="66.48,79.00 53.39,69.80 53.47,85.80 56.13,85.60 58.59,85.03 60.85,84.08 62.92,82.76 64.80,81.07">
        <request index="0" response="00000" foes="00000" cont="0"/>
        <request index="1" response="00000" foes="00000" cont="0"/>
        <request index="2" response="00000" foes="00000" cont="0"/>
        <request index="3" response="00000" foes="00000" cont="0"/>
        <request index="4" response="00000" foes="00000" cont="0"/>
    </junction>
    <junction id="gneJ11" type="priority" x="87.40" y="49.24" incLanes="gneE7_0 gneE7_1 gneE7_2 gneE7_3 gneE7_4" intLanes=":gneJ11_0_0 :gneJ11_0_1 :gneJ11_0_2 :gneJ11_0_3 :gneJ11_0_4" shape="82.07,40.33 68.34,48.53 81.43,57.74 83.11,54.89 84.15,52.03 84.58,49.14 84.37,46.22 83.54,43.29">
        <request index="0" response="00000" foes="00000" cont="0"/>
        <request index="1" response="00000" foes="00000" cont="0"/>
        <request index="2" response="00000" foes="00000" cont="0"/>
        <request index="3" response="00000" foes="00000" cont="0"/>
        <request index="4" response="00000" foes="00000" cont="0"/>
    </junction>
    <junction id="gneJ12" type="priority" x="64.53" y="10.97" incLanes="gneE8_0 gneE8_1 gneE8_2 gneE8_3 gneE8_4" intLanes=":gneJ12_0_0 :gneJ12_0_1 :gneJ12_0_2 :gneJ12_0_3 :gneJ12_0_4" shape="55.46,26.99 69.20,18.78 67.52,16.39 65.59,14.44 63.42,12.93 61.00,11.85 58.34,11.20 55.43,10.99">
        <request index="0" response="00000" foes="00000" cont="0"/>
        <request index="1" response="00000" foes="00000" cont="0"/>
        <request index="2" response="00000" foes="00000" cont="0"/>
        <request index="3" response="00000" foes="00000" cont="0"/>
        <request index="4" response="00000" foes="00000" cont="0"/>
    </junction>
    <junction id="gneJ13" type="priority" x="2.22" y="11.09" incLanes="gneE9_0 gneE9_1 gneE9_2 gneE9_3 gneE9_4" intLanes=":gneJ13_0_0 :gneJ13_0_1 :gneJ13_0_2 :gneJ13_0_3 :gneJ13_0_4" shape="9.02,27.08 8.99,11.08 6.79,11.22 4.71,11.62 2.74,12.30 0.88,13.25 -0.86,14.47 -2.48,15.96">
        <request index="0" response="00000" foes="00000" cont="0"/>
        <request index="1" response="00000" foes="00000" cont="0"/>
        <request index="2" response="00000" foes="00000" cont="0"/>
        <request index="3" response="00000" foes="00000" cont="0"/>
        <request index="4" response="00000" foes="00000" cont="0"/>
    </junction>
    <junction id="gneJ14" type="priority" x="-28.35" y="42.71" incLanes="gneE10_0 gneE10_1 gneE10_2 gneE10_3 gneE10_4" intLanes=":gneJ14_0_0 :gneJ14_0_1 :gneJ14_0_2 :gneJ14_0_3 :gneJ14_0_4" shape="-28.35,49.18 -12.35,49.18 -23.85,38.06 -25.63,39.96 -26.87,41.53 -27.66,42.99 -28.11,44.59 -28.31,46.57">
        <request index="0" response="00000" foes="00000" cont="0"/>
        <request index="1" response="00000" foes="00000" cont="0"/>
        <request index="2" response="00000" foes="00000" cont="0"/>
        <request index="3" response="00000" foes="00000" cont="0"/>
        <request index="4" response="00000" foes="00000" cont="0"/>
    </junction>
    <junction id="gneJ15" type="priority" x="-28.35" y="57.88" incLanes="gneE11_0 gneE11_1 gneE11_2 gneE11_3 gneE11_4" intLanes=":gneJ15_0_0 :gneJ15_0_1 :gneJ15_0_2 :gneJ15_0_3 :gneJ15_0_4" shape="-25.34,62.07 -12.35,52.72 -28.35,52.72 -28.33,54.84 -28.21,56.44 -27.92,57.74 -27.39,58.96 -26.56,60.33">
        <request index="0" response="00000" foes="00000" cont="0"/>
        <request index="1" response="00000" foes="00000" cont="0"/>
        <request index="2" response="00000" foes="00000" cont="0"/>
        <request index="3" response="00000" foes="00000" cont="0"/>
        <request index="4" response="00000" foes="00000" cont="0"/>
    </junction>
    <junction id="gneJ9" type="priority" x="-8.05" y="86.11" incLanes="top_left_0 top_left_1 top_left_2 top_left_3 top_left_4" intLanes=":gneJ9_0_0 :gneJ9_0_1 :gneJ9_0_2 :gneJ9_0_3 :gneJ9_0_4" shape="0.20,86.07 0.12,70.07 -12.87,79.41 -11.17,81.46 -9.27,83.13 -7.19,84.42 -4.92,85.35 -2.45,85.90">
        <request index="0" response="00000" foes="00000" cont="0"/>
        <request index="1" response="00000" foes="00000" cont="0"/>
        <request index="2" response="00000" foes="00000" cont="0"/>
        <request index="3" response="00000" foes="00000" cont="0"/>
        <request index="4" response="00000" foes="00000" cont="0"/>
    </junction>

    <connection from="gneE10" to="gneE11" fromLane="0" toLane="0" via=":gneJ14_0_0" dir="s" state="M"/>
    <connection from="gneE10" to="gneE11" fromLane="1" toLane="1" via=":gneJ14_0_1" dir="s" state="M"/>
    <connection from="gneE10" to="gneE11" fromLane="2" toLane="2" via=":gneJ14_0_2" dir="s" state="M"/>
    <connection from="gneE10" to="gneE11" fromLane="3" toLane="3" via=":gneJ14_0_3" dir="s" state="M"/>
    <connection from="gneE10" to="gneE11" fromLane="4" toLane="4" via=":gneJ14_0_4" dir="s" state="M"/>
    <connection from="gneE11" to="top_left" fromLane="0" toLane="0" via=":gneJ15_0_0" dir="s" state="M"/>
    <connection from="gneE11" to="top_left" fromLane="1" toLane="1" via=":gneJ15_0_1" dir="s" state="M"/>
    <connection from="gneE11" to="top_left" fromLane="2" toLane="2" via=":gneJ15_0_2" dir="s" state="M"/>
    <connection from="gneE11" to="top_left" fromLane="3" toLane="3" via=":gneJ15_0_3" dir="s" state="M"/>
    <connection from="gneE11" to="top_left" fromLane="4" toLane="4" via=":gneJ15_0_4" dir="s" state="M"/>
    <connection from="gneE7" to="gneE8" fromLane="0" toLane="0" via=":gneJ11_0_0" dir="s" state="M"/>
    <connection from="gneE7" to="gneE8" fromLane="1" toLane="1" via=":gneJ11_0_1" dir="s" state="M"/>
    <connection from="gneE7" to="gneE8" fromLane="2" toLane="2" via=":gneJ11_0_2" dir="s" state="M"/>
    <connection from="gneE7" to="gneE8" fromLane="3" toLane="3" via=":gneJ11_0_3" dir="s" state="M"/>
    <connection from="gneE7" to="gneE8" fromLane="4" toLane="4" via=":gneJ11_0_4" dir="s" state="M"/>
    <connection from="gneE8" to="gneE9" fromLane="0" toLane="0" via=":gneJ12_0_0" dir="s" state="M"/>
    <connection from="gneE8" to="gneE9" fromLane="1" toLane="1" via=":gneJ12_0_1" dir="s" state="M"/>
    <connection from="gneE8" to="gneE9" fromLane="2" toLane="2" via=":gneJ12_0_2" dir="s" state="M"/>
    <connection from="gneE8" to="gneE9" fromLane="3" toLane="3" via=":gneJ12_0_3" dir="s" state="M"/>
    <connection from="gneE8" to="gneE9" fromLane="4" toLane="4" via=":gneJ12_0_4" dir="s" state="M"/>
    <connection from="gneE9" to="gneE10" fromLane="0" toLane="0" via=":gneJ13_0_0" dir="s" state="M"/>
    <connection from="gneE9" to="gneE10" fromLane="1" toLane="1" via=":gneJ13_0_1" dir="s" state="M"/>
    <connection from="gneE9" to="gneE10" fromLane="2" toLane="2" via=":gneJ13_0_2" dir="s" state="M"/>
    <connection from="gneE9" to="gneE10" fromLane="3" toLane="3" via=":gneJ13_0_3" dir="s" state="M"/>
    <connection from="gneE9" to="gneE10" fromLane="4" toLane="4" via=":gneJ13_0_4" dir="s" state="M"/>
    <connection from="top" to="gneE7" fromLane="0" toLane="0" via=":gneJ10_0_0" dir="s" state="M"/>
    <connection from="top" to="gneE7" fromLane="1" toLane="1" via=":gneJ10_0_1" dir="s" state="M"/>
    <connection from="top" to="gneE7" fromLane="2" toLane="2" via=":gneJ10_0_2" dir="s" state="M"/>
    <connection from="top" to="gneE7" fromLane="3" toLane="3" via=":gneJ10_0_3" dir="s" state="M"/>
    <connection from="top" to="gneE7" fromLane="4" toLane="4" via=":gneJ10_0_4" dir="s" state="M"/>
    <connection from="top_left" to="top" fromLane="0" toLane="0" via=":gneJ9_0_0" dir="s" state="M"/>
    <connection from="top_left" to="top" fromLane="1" toLane="1" via=":gneJ9_0_1" dir="s" state="M"/>
    <connection from="top_left" to="top" fromLane="2" toLane="2" via=":gneJ9_0_2" dir="s" state="M"/>
    <connection from="top_left" to="top" fromLane="3" toLane="3" via=":gneJ9_0_3" dir="s" state="M"/>
    <connection from="top_left" to="top" fromLane="4" toLane="4" via=":gneJ9_0_4" dir="s" state="M"/>

    <connection from=":gneJ10_0" to="gneE7" fromLane="0" toLane="0" dir="s" state="M"/>
    <connection from=":gneJ10_0" to="gneE7" fromLane="1" toLane="1" dir="s" state="M"/>
    <connection from=":gneJ10_0" to="gneE7" fromLane="2" toLane="2" dir="s" state="M"/>
    <connection from=":gneJ10_0" to="gneE7" fromLane="3" toLane="3" dir="s" state="M"/>
    <connection from=":gneJ10_0" to="gneE7" fromLane="4" toLane="4" dir="s" state="M"/>
    <connection from=":gneJ11_0" to="gneE8" fromLane="0" toLane="0" dir="s" state="M"/>
    <connection from=":gneJ11_0" to="gneE8" fromLane="1" toLane="1" dir="s" state="M"/>
    <connection from=":gneJ11_0" to="gneE8" fromLane="2" toLane="2" dir="s" state="M"/>
    <connection from=":gneJ11_0" to="gneE8" fromLane="3" toLane="3" dir="s" state="M"/>
    <connection from=":gneJ11_0" to="gneE8" fromLane="4" toLane="4" dir="s" state="M"/>
    <connection from=":gneJ12_0" to="gneE9" fromLane="0" toLane="0" dir="s" state="M"/>
    <connection from=":gneJ12_0" to="gneE9" fromLane="1" toLane="1" dir="s" state="M"/>
    <connection from=":gneJ12_0" to="gneE9" fromLane="2" toLane="2" dir="s" state="M"/>
    <connection from=":gneJ12_0" to="gneE9" fromLane="3" toLane="3" dir="s" state="M"/>
    <connection from=":gneJ12_0" to="gneE9" fromLane="4" toLane="4" dir="s" state="M"/>
    <connection from=":gneJ13_0" to="gneE10" fromLane="0" toLane="0" dir="s" state="M"/>
    <connection from=":gneJ13_0" to="gneE10" fromLane="1" toLane="1" dir="s" state="M"/>
    <connection from=":gneJ13_0" to="gneE10" fromLane="2" toLane="2" dir="s" state="M"/>
    <connection from=":gneJ13_0" to="gneE10" fromLane="3" toLane="3" dir="s" state="M"/>
    <connection from=":gneJ13_0" to="gneE10" fromLane="4" toLane="4" dir="s" state="M"/>
    <connection from=":gneJ14_0" to="gneE11" fromLane="0" toLane="0" dir="s" state="M"/>
    <connection from=":gneJ14_0" to="gneE11" fromLane="1" toLane="1" dir="s" state="M"/>
    <connection from=":gneJ14_0" to="gneE11" fromLane="2" toLane="2" dir="s" state="M"/>
    <connection from=":gneJ14_0" to="gneE11" fromLane="3" toLane="3" dir="s" state="M"/>
    <connection from=":gneJ14_0" to="gneE11" fromLane="4" toLane="4" dir="s" state="M"/>
    <connection from=":gneJ15_0" to="top_left" fromLane="0" toLane="0" dir="s" state="M"/>
    <connection from=":gneJ15_0" to="top_left" fromLane="1" toLane="1" dir="s" state="M"/>
    <connection from=":gneJ15_0" to="top_left" fromLane="2" toLane="2" dir="s" state="M"/>
    <connection from=":gneJ15_0" to="top_left" fromLane="3" toLane="3" dir="s" state="M"/>
    <connection from=":gneJ15_0" to="top_left" fromLane="4" toLane="4" dir="s" state="M"/>
    <connection from=":gneJ9_0" to="top" fromLane="0" toLane="0" dir="s" state="M"/>
    <connection from=":gneJ9_0" to="top" fromLane="1" toLane="1" dir="s" state="M"/>
    <connection from=":gneJ9_0" to="top" fromLane="2" toLane="2" dir="s" state="M"/>
    <connection from=":gneJ9_0" to="top" fromLane="3" toLane="3" dir="s" state="M"/>
    <connection from=":gneJ9_0" to="top" fromLane="4" toLane="4" dir="s" state="M"/>

    <roundabout nodes="gneJ10 gneJ11 gneJ12 gneJ13 gneJ14 gneJ15 gneJ9" edges="gneE10 gneE11 gneE7 gneE8 gneE9 top top_left"/>

</net>
