<?xml version="1.0" encoding="UTF-8"?>

<!-- generated on 2023-03-08 18:07:16 by Eclipse SUMO netedit Version 1.16.0
<configuration xmlns:xsi="http://www.w3.org/2001/XMLSchema-instance" xsi:noNamespaceSchemaLocation="http://sumo.dlr.de/xsd/netconvertConfiguration.xsd">

    <input>
        <sumo-net-file value="/home/kyber/workspace/SMARTS/scenarios/sumo/platoon/fork_agents_1/map.net.xml"/>
    </input>

    <output>
        <output-file value="/home/kyber/workspace/SMARTS/scenarios/sumo/platoon/fork_agents_1/map.net.xml"/>
    </output>

    <processing>
        <geometry.min-radius.fix.railways value="false"/>
        <geometry.max-grade.fix value="false"/>
        <offset.disable-normalization value="true"/>
        <lefthand value="0"/>
    </processing>

    <junctions>
        <no-turnarounds value="true"/>
        <junctions.corner-detail value="5"/>
        <junctions.limit-turn-speed value="5.50"/>
        <rectangular-lane-cut value="0"/>
    </junctions>

    <pedestrian>
        <walkingareas value="0"/>
    </pedestrian>

</configuration>
-->

<net version="1.16" junctionCornerDetail="5" limitTurnSpeed="5.50" xmlns:xsi="http://www.w3.org/2001/XMLSchema-instance" xsi:noNamespaceSchemaLocation="http://sumo.dlr.de/xsd/net_file.xsd">

    <location netOffset="0.00,0.00" convBoundary="0.00,-34.20,286.60,34.20" origBoundary="-10000000000.00,-10000000000.00,10000000000.00,10000000000.00" projParameter="!"/>

    <edge id=":J_1_0" function="internal">
        <lane id=":J_1_0_0" index="0" speed="13.89" length="10.66" shape="198.50,-4.80 201.57,-5.10 203.56,-5.90 205.48,-7.07 208.34,-8.46"/>
        <lane id=":J_1_0_1" index="1" speed="13.89" length="11.19" shape="198.50,-4.80 201.83,-4.62 204.15,-4.38 206.41,-4.52 209.52,-5.48"/>
    </edge>
    <edge id=":J_1_2" function="internal">
        <lane id=":J_1_2_0" index="0" speed="13.89" length="11.89" shape="198.50,-4.80 201.90,-4.57 204.16,-3.89 206.35,-2.83 209.52,-1.40"/>
        <lane id=":J_1_2_1" index="1" speed="13.89" length="11.89" shape="198.50,-4.80 201.74,-4.11 203.58,-2.42 205.33,-0.33 208.34,1.57"/>
    </edge>
    <edge id=":J_1_4" function="internal">
        <lane id=":J_1_4_0" index="0" speed="13.89" length="1.68" shape="198.50,-1.60 200.14,-1.98"/>
        <lane id=":J_1_4_1" index="1" speed="13.89" length="2.27" shape="198.50,-1.60 200.76,-1.80"/>
    </edge>
    <edge id=":J_1_6" function="internal">
        <lane id=":J_1_6_0" index="0" speed="13.89" length="10.83" shape="198.50,-1.60 201.83,-1.85 204.15,-2.26 206.41,-2.29 209.52,-1.40"/>
        <lane id=":J_1_6_1" index="1" speed="13.89" length="10.83" shape="198.50,-1.60 201.54,-1.37 203.56,-0.72 205.50,0.28 208.34,1.57"/>
    </edge>
    <edge id=":J_1_8" function="internal">
        <lane id=":J_1_8_0" index="0" speed="13.89" length="10.74" shape="200.14,-1.98 201.78,-2.36 203.58,-4.20 205.30,-6.46 208.34,-8.46"/>
    </edge>
    <edge id=":J_1_9" function="internal">
        <lane id=":J_1_9_0" index="0" speed="13.89" length="9.58" shape="200.76,-1.80 201.92,-1.90 204.16,-2.74 206.33,-3.97 209.52,-5.48"/>
    </edge>

    <edge id="E0" from="J_0" to="J_1" priority="-1">
        <lane id="E0_0" index="0" speed="13.89" length="198.50" shape="0.00,-4.80 198.50,-4.80"/>
        <lane id="E0_1" index="1" speed="13.89" length="198.50" shape="0.00,-1.60 198.50,-1.60"/>
    </edge>
    <edge id="E_left" from="J_1" to="J_left" priority="-1">
        <lane id="E_left_0" index="0" speed="13.89" length="84.77" shape="209.52,-1.40 288.36,29.74"/>
        <lane id="E_left_1" index="1" speed="13.89" length="84.77" shape="208.34,1.57 287.19,32.71"/>
    </edge>
    <edge id="E_right" from="J_1" to="J_right" priority="-1">
        <lane id="E_right_0" index="0" speed="13.89" length="82.24" shape="208.34,-8.46 284.84,-38.66"/>
        <lane id="E_right_1" index="1" speed="13.89" length="82.24" shape="209.52,-5.48 286.01,-35.69"/>
    </edge>

    <junction id="J_0" type="dead_end" x="0.00" y="0.00" incLanes="" intLanes="" shape="0.00,0.00 0.00,-6.40"/>
    <junction id="J_1" type="priority" x="200.00" y="0.00" incLanes="E0_0 E0_1" intLanes=":J_1_0_0 :J_1_0_1 :J_1_2_0 :J_1_2_1 :J_1_8_0 :J_1_9_0 :J_1_6_0 :J_1_6_1" shape="207.76,3.06 210.11,-2.89 209.49,-3.26 209.41,-3.44 209.49,-3.62 209.72,-3.81 210.11,-3.99 207.76,-9.94 205.81,-9.05 204.41,-8.22 203.26,-7.49 202.08,-6.91 200.59,-6.54 198.50,-6.40 198.50,0.00 200.56,0.10 202.06,0.40 203.26,0.86 205.83,2.21">
        <request index="0" response="00000000" foes="00010000" cont="0"/>
        <request index="1" response="00000000" foes="00100000" cont="0"/>
        <request index="2" response="00000000" foes="01110000" cont="0"/>
        <request index="3" response="00000000" foes="10110000" cont="0"/>
        <request index="4" response="00001101" foes="00001101" cont="1"/>
        <request index="5" response="00001110" foes="00001110" cont="1"/>
        <request index="6" response="00000100" foes="00000100" cont="0"/>
        <request index="7" response="00001000" foes="00001000" cont="0"/>
    </junction>
    <junction id="J_left" type="dead_end" x="286.60" y="34.20" incLanes="E_left_0 E_left_1" intLanes="" shape="288.95,28.25 286.60,34.20"/>
    <junction id="J_right" type="dead_end" x="286.60" y="-34.20" incLanes="E_right_0 E_right_1" intLanes="" shape="284.25,-40.15 286.60,-34.20"/>

    <junction id=":J_1_8_0" type="internal" x="200.14" y="-1.98" incLanes=":J_1_4_0 E0_0" intLanes=":J_1_0_0 :J_1_2_0 :J_1_2_1"/>
    <junction id=":J_1_9_0" type="internal" x="200.76" y="-1.80" incLanes=":J_1_4_1 E0_0" intLanes=":J_1_0_1 :J_1_2_0 :J_1_2_1"/>

    <connection from="E0" to="E_right" fromLane="0" toLane="0" via=":J_1_0_0" dir="R" state="M"/>
    <connection from="E0" to="E_right" fromLane="0" toLane="1" via=":J_1_0_1" dir="R" state="M"/>
    <connection from="E0" to="E_left" fromLane="0" toLane="0" via=":J_1_2_0" dir="s" state="M"/>
    <connection from="E0" to="E_left" fromLane="0" toLane="1" via=":J_1_2_1" dir="s" state="M"/>
    <connection from="E0" to="E_right" fromLane="1" toLane="0" via=":J_1_4_0" dir="R" state="m"/>
    <connection from="E0" to="E_right" fromLane="1" toLane="1" via=":J_1_4_1" dir="R" state="m"/>
    <connection from="E0" to="E_left" fromLane="1" toLane="0" via=":J_1_6_0" dir="s" state="m"/>
    <connection from="E0" to="E_left" fromLane="1" toLane="1" via=":J_1_6_1" dir="s" state="m"/>

    <connection from=":J_1_0" to="E_right" fromLane="0" toLane="0" dir="R" state="M"/>
    <connection from=":J_1_0" to="E_right" fromLane="1" toLane="1" dir="R" state="M"/>
    <connection from=":J_1_2" to="E_left" fromLane="0" toLane="0" dir="s" state="M"/>
    <connection from=":J_1_2" to="E_left" fromLane="1" toLane="1" dir="s" state="M"/>
    <connection from=":J_1_4" to="E_right" fromLane="0" toLane="0" via=":J_1_8_0" dir="R" state="m"/>
    <connection from=":J_1_8" to="E_right" fromLane="0" toLane="0" dir="R" state="M"/>
    <connection from=":J_1_4" to="E_right" fromLane="1" toLane="1" via=":J_1_9_0" dir="R" state="m"/>
    <connection from=":J_1_9" to="E_right" fromLane="0" toLane="1" dir="R" state="M"/>
    <connection from=":J_1_6" to="E_left" fromLane="0" toLane="0" dir="s" state="M"/>
    <connection from=":J_1_6" to="E_left" fromLane="1" toLane="1" dir="s" state="M"/>

</net>
