<?xml version="1.0" encoding="UTF-8"?>

<!-- generated on 2023-02-23 12:23:35 by Eclipse SUMO netedit Version 1.15.0
<configuration xmlns:xsi="http://www.w3.org/2001/XMLSchema-instance" xsi:noNamespaceSchemaLocation="http://sumo.dlr.de/xsd/netconvertConfiguration.xsd">

    <input>
        <sumo-net-file value="scenarios/sumo/competition_2023/single_lead/map.net.xml"/>
    </input>

    <output>
        <output-file value="/home/patrick/SMARTS/scenarios/sumo/competition_2023/single_lead/map.net.xml"/>
    </output>

    <processing>
        <geometry.min-radius.fix.railways value="false"/>
        <geometry.max-grade.fix value="false"/>
        <offset.disable-normalization value="true"/>
        <lefthand value="0"/>
    </processing>

    <junctions>
        <no-internal-links value="false"/>
        <no-turnarounds value="true"/>
        <junctions.corner-detail value="5"/>
        <junctions.limit-turn-speed value="5.50"/>
        <rectangular-lane-cut value="0"/>
    </junctions>

    <pedestrian>
        <walkingareas value="0"/>
    </pedestrian>

</configuration>
-->

<net version="1.9" junctionCornerDetail="5" limitTurnSpeed="5.50" xmlns:xsi="http://www.w3.org/2001/XMLSchema-instance" xsi:noNamespaceSchemaLocation="http://sumo.dlr.de/xsd/net_file.xsd">

    <location netOffset="0.00,0.00" convBoundary="-100.00,0.00,-100.00,200.00" origBoundary="-10000000000.00,-10000000000.00,10000000000.00,10000000000.00" projParameter="!"/>

    <edge id=":J1_0" function="internal">
        <lane id=":J1_0_0" index="0" speed="13.89" length="0.10" shape="-95.20,100.00 -95.20,100.00"/>
        <lane id=":J1_0_1" index="1" speed="13.89" length="0.10" shape="-98.40,100.00 -98.40,100.00"/>
    </edge>

    <edge id="E0" from="J0" to="J1" priority="-1">
        <lane id="E0_0" index="0" speed="13.89" length="100.00" shape="-95.20,0.00 -95.20,100.00"/>
        <lane id="E0_1" index="1" speed="13.89" length="100.00" shape="-98.40,0.00 -98.40,100.00"/>
    </edge>
    <edge id="E1" from="J1" to="J2" priority="-1">
        <lane id="E1_0" index="0" speed="13.89" length="100.00" shape="-95.20,100.00 -95.20,200.00"/>
        <lane id="E1_1" index="1" speed="13.89" length="100.00" shape="-98.40,100.00 -98.40,200.00"/>
    </edge>

    <junction id="J0" type="dead_end" x="-100.00" y="0.00" incLanes="" intLanes="" shape="-100.00,0.00 -93.60,0.00"/>
    <junction id="J1" type="priority" x="-100.00" y="100.00" incLanes="E0_0 E0_1" intLanes=":J1_0_0 :J1_0_1" shape="-100.00,100.00 -93.60,100.00 -100.00,100.00">
        <request index="0" response="00" foes="00" cont="0"/>
        <request index="1" response="00" foes="00" cont="0"/>
    </junction>
    <junction id="J2" type="dead_end" x="-100.00" y="200.00" incLanes="E1_0 E1_1" intLanes="" shape="-93.60,200.00 -100.00,200.00"/>

    <connection from="E0" to="E1" fromLane="0" toLane="0" via=":J1_0_0" dir="s" state="M"/>
    <connection from="E0" to="E1" fromLane="1" toLane="1" via=":J1_0_1" dir="s" state="M"/>

    <connection from=":J1_0" to="E1" fromLane="0" toLane="0" dir="s" state="M"/>
    <connection from=":J1_0" to="E1" fromLane="1" toLane="1" dir="s" state="M"/>

</net>
