<?xml version="1.0" encoding="UTF-8"?>

<!-- generated on 2023-03-07 14:46:55 by Eclipse SUMO netedit Version 1.16.0
<configuration xmlns:xsi="http://www.w3.org/2001/XMLSchema-instance" xsi:noNamespaceSchemaLocation="http://sumo.dlr.de/xsd/netconvertConfiguration.xsd">

    <input>
        <sumo-net-file value="/home/kyber/SMARTS/scenarios/sumo/competition_2023/single_social_lead_fork/map.net.xml"/>
    </input>

    <output>
        <output-file value="/home/kyber/SMARTS/scenarios/sumo/competition_2023/single_social_lead_fork/map.net.xml"/>
    </output>

    <processing>
        <geometry.min-radius.fix.railways value="false"/>
        <geometry.max-grade.fix value="false"/>
        <offset.disable-normalization value="true"/>
        <lefthand value="0"/>
    </processing>

    <junctions>
        <no-internal-links value="false"/>
        <no-turnarounds value="true"/>
        <junctions.corner-detail value="5"/>
        <junctions.limit-turn-speed value="5.50"/>
        <rectangular-lane-cut value="0"/>
    </junctions>

    <pedestrian>
        <walkingareas value="0"/>
    </pedestrian>

</configuration>
-->

<net version="1.16" junctionCornerDetail="5" limitTurnSpeed="5.50" xmlns:xsi="http://www.w3.org/2001/XMLSchema-instance" xsi:noNamespaceSchemaLocation="http://sumo.dlr.de/xsd/net_file.xsd">

    <location netOffset="0.00,0.00" convBoundary="-100.00,151.99,149.54,235.22" origBoundary="-10000000000.00,-10000000000.00,10000000000.00,10000000000.00" projParameter="!"/>

    <edge id=":J_1_0" function="internal">
        <lane id=":J_1_0_0" index="0" speed="9.34" length="8.12" shape="95.60,195.20 96.90,194.92 98.44,194.10 100.22,192.72 102.24,190.79"/>
        <lane id=":J_1_0_1" index="1" speed="10.01" length="9.39" shape="95.60,195.20 98.71,195.06 101.24,194.65 103.18,193.97 104.53,193.02"/>
    </edge>
    <edge id=":J_1_2" function="internal">
        <lane id=":J_1_2_0" index="0" speed="12.57" length="9.68" shape="95.60,195.20 98.54,195.19 100.61,195.37 102.51,196.07 104.96,197.64"/>
        <lane id=":J_1_2_1" index="1" speed="12.23" length="9.68" shape="95.60,195.20 98.16,195.62 99.66,196.74 101.01,198.35 103.10,200.24"/>
    </edge>
    <edge id=":J_1_4" function="internal">
        <lane id=":J_1_4_0" index="0" speed="10.38" length="1.29" shape="95.60,198.40 96.60,197.60"/>
        <lane id=":J_1_4_1" index="1" speed="10.64" length="1.99" shape="95.60,198.40 97.55,198.06"/>
    </edge>
    <edge id=":J_1_6" function="internal">
        <lane id=":J_1_6_0" index="0" speed="12.50" length="8.90" shape="95.60,198.40 98.50,197.90 100.60,197.00 102.54,196.61 104.96,197.64"/>
        <lane id=":J_1_6_1" index="1" speed="11.28" length="8.90" shape="95.60,198.40 97.96,198.37 99.62,198.48 101.15,199.01 103.10,200.24"/>
    </edge>
    <edge id=":J_1_8" function="internal">
        <lane id=":J_1_8_0" index="0" speed="10.38" length="8.85" shape="96.60,197.60 96.96,197.31 99.03,194.87 101.05,192.28 102.24,190.79"/>
    </edge>
    <edge id=":J_1_9" function="internal">
        <lane id=":J_1_9_0" index="0" speed="10.64" length="8.68" shape="97.55,198.06 99.69,197.05 102.02,195.37 104.53,193.02"/>
    </edge>

    <edge id="E0" from="J_0" to="J_1" priority="-1">
        <lane id="E0_0" index="0" speed="13.89" length="195.60" shape="-100.00,195.20 95.60,195.20"/>
        <lane id="E0_1" index="1" speed="13.89" length="195.60" shape="-100.00,198.40 95.60,198.40"/>
    </edge>
    <edge id="E_left" from="J_1" to="J_left" priority="-1">
        <lane id="E_left_0" index="0" speed="13.89" length="58.11" shape="104.96,197.64 152.32,231.31"/>
        <lane id="E_left_1" index="1" speed="13.89" length="58.11" shape="103.10,200.24 150.47,233.92"/>
    </edge>
    <edge id="E_right" from="J_1" to="J_right" priority="-1">
        <lane id="E_right_0" index="0" speed="13.89" length="58.68" shape="102.24,190.79 143.06,148.65"/>
        <lane id="E_right_1" index="1" speed="13.89" length="58.68" shape="104.53,193.02 145.36,150.88"/>
    </edge>

    <junction id="J_0" type="dead_end" x="-100.00" y="200.00" incLanes="" intLanes="" shape="-100.00,200.00 -100.00,193.60"/>
    <junction id="J_1" type="priority" x="100.00" y="200.00" incLanes="E0_0 E0_1" intLanes=":J_1_0_0 :J_1_0_1 :J_1_2_0 :J_1_2_1 :J_1_8_0 :J_1_9_0 :J_1_6_0 :J_1_6_1" shape="102.18,201.55 105.89,196.33 105.25,195.65 105.14,195.29 105.18,194.92 105.36,194.53 105.68,194.13 101.09,189.68 98.79,191.86 97.82,192.62 96.96,193.16 96.22,193.49 95.60,193.60 95.60,200.00 98.19,199.97 99.12,200.04 100.00,200.28 100.97,200.75">
        <request index="0" response="00000000" foes="00010000" cont="0"/>
        <request index="1" response="00000000" foes="00100000" cont="0"/>
        <request index="2" response="00000000" foes="01110000" cont="0"/>
        <request index="3" response="00000000" foes="10110000" cont="0"/>
        <request index="4" response="00001101" foes="00001101" cont="1"/>
        <request index="5" response="00001110" foes="00001110" cont="1"/>
        <request index="6" response="00000100" foes="00000100" cont="0"/>
        <request index="7" response="00001000" foes="00001000" cont="0"/>
    </junction>
    <junction id="J_left" type="dead_end" x="149.54" y="235.22" incLanes="E_left_0 E_left_1" intLanes="" shape="153.25,230.00 149.54,235.22"/>
    <junction id="J_right" type="dead_end" x="146.51" y="151.99" incLanes="E_right_0 E_right_1" intLanes="" shape="141.91,147.54 146.51,151.99"/>

    <junction id=":J_1_8_0" type="internal" x="96.60" y="197.60" incLanes=":J_1_4_0 E0_0" intLanes=":J_1_0_0 :J_1_2_0 :J_1_2_1"/>
    <junction id=":J_1_9_0" type="internal" x="97.55" y="198.06" incLanes=":J_1_4_1 E0_0" intLanes=":J_1_0_1 :J_1_2_0 :J_1_2_1"/>

    <connection from="E0" to="E_right" fromLane="0" toLane="0" via=":J_1_0_0" dir="r" state="M"/>
    <connection from="E0" to="E_right" fromLane="0" toLane="1" via=":J_1_0_1" dir="r" state="M"/>
    <connection from="E0" to="E_left" fromLane="0" toLane="0" via=":J_1_2_0" dir="s" state="M"/>
    <connection from="E0" to="E_left" fromLane="0" toLane="1" via=":J_1_2_1" dir="s" state="M"/>
    <connection from="E0" to="E_right" fromLane="1" toLane="0" via=":J_1_4_0" dir="r" state="m"/>
    <connection from="E0" to="E_right" fromLane="1" toLane="1" via=":J_1_4_1" dir="r" state="m"/>
    <connection from="E0" to="E_left" fromLane="1" toLane="0" via=":J_1_6_0" dir="s" state="m"/>
    <connection from="E0" to="E_left" fromLane="1" toLane="1" via=":J_1_6_1" dir="s" state="m"/>

    <connection from=":J_1_0" to="E_right" fromLane="0" toLane="0" dir="r" state="M"/>
    <connection from=":J_1_0" to="E_right" fromLane="1" toLane="1" dir="r" state="M"/>
    <connection from=":J_1_2" to="E_left" fromLane="0" toLane="0" dir="s" state="M"/>
    <connection from=":J_1_2" to="E_left" fromLane="1" toLane="1" dir="s" state="M"/>
    <connection from=":J_1_4" to="E_right" fromLane="0" toLane="0" via=":J_1_8_0" dir="r" state="m"/>
    <connection from=":J_1_8" to="E_right" fromLane="0" toLane="0" dir="r" state="M"/>
    <connection from=":J_1_4" to="E_right" fromLane="1" toLane="1" via=":J_1_9_0" dir="r" state="m"/>
    <connection from=":J_1_9" to="E_right" fromLane="0" toLane="1" dir="r" state="M"/>
    <connection from=":J_1_6" to="E_left" fromLane="0" toLane="0" dir="s" state="M"/>
    <connection from=":J_1_6" to="E_left" fromLane="1" toLane="1" dir="s" state="M"/>

</net>
