<?xml version="1.0" encoding="UTF-8"?>

<!-- generated on 2022-03-11 18:22:26 by Eclipse SUMO netconvert Version 1.10.0
<configuration xmlns:xsi="http://www.w3.org/2001/XMLSchema-instance" xsi:noNamespaceSchemaLocation="http://sumo.dlr.de/xsd/netconvertConfiguration.xsd">

    <input>
        <sumo-net-file value="NGSIM/us101/map.net.xml"/>
    </input>

    <output>
        <output-file value="NGSIM/us101/shifted_map-AUTOGEN.net.xml"/>
    </output>

    <processing>
        <geometry.min-radius.fix.railways value="false"/>
        <geometry.max-grade.fix value="false"/>
        <offset.disable-normalization value="false"/>
        <lefthand value="false"/>
    </processing>

    <junctions>
        <no-internal-links value="true"/>
        <no-turnarounds value="true"/>
        <junctions.corner-detail value="5"/>
        <junctions.limit-turn-speed value="5.5"/>
        <rectangular-lane-cut value="false"/>
    </junctions>

    <pedestrian>
        <walkingareas value="false"/>
    </pedestrian>

    <report>
        <aggregate-warnings value="5"/>
    </report>

</configuration>
-->

<net version="1.9" junctionCornerDetail="5" limitTurnSpeed="5.50" xmlns:xsi="http://www.w3.org/2001/XMLSchema-instance" xsi:noNamespaceSchemaLocation="http://sumo.dlr.de/xsd/net_file.xsd">

    <location netOffset="-17.37,-3.00" convBoundary="0.00,0.00,5.05,656.00" origBoundary="-10000000000.00,-10000000000.00,10000000000.00,10000000000.00" projParameter="!"/>

    <edge id="E0" from="J0" to="J1" priority="-1">
        <lane id="E0_0" index="0" speed="13.89" length="656.00" width="3.50" shape="-15.62,656.00 -15.62,0.00"/>
        <lane id="E0_1" index="1" speed="13.89" length="656.00" width="3.50" shape="-12.12,656.00 -12.12,0.00"/>
        <lane id="E0_2" index="2" speed="13.89" length="656.00" width="3.50" shape="-8.62,656.00 -8.62,0.00"/>
        <lane id="E0_3" index="3" speed="13.89" length="656.00" width="3.50" shape="-5.12,656.00 -5.12,0.00"/>
        <lane id="E0_4" index="4" speed="13.89" length="656.00" width="3.50" acceleration="1" shape="-1.62,656.00 -1.62,0.00"/>
    </edge>
    <edge id="E2" from="J7" to="J8" priority="-1" shape="2.75,132.35 1.78,143.30 1.32,149.16 0.82,156.44 0.42,163.86 0.03,171.62 0.03,179.98 0.02,187.62 0.01,196.23 0.00,413.13">
        <lane id="E2_0" index="0" speed="13.89" length="280.88" width="3.70" shape="4.59,132.51 3.62,143.46 3.17,149.29 2.67,156.55 2.27,163.96 1.88,171.67 1.88,179.98 1.87,187.62 1.86,196.23 1.85,411.65"/>
    </edge>
    <edge id="E3" from="J9" to="J10" priority="-1">
        <lane id="E3_0" index="0" speed="13.89" length="41.51" shape="6.64,132.56 1.69,173.77"/>
    </edge>
    <edge id="E4" from="J8" to="J11" priority="-1">
        <lane id="E4_0" index="0" speed="13.89" length="84.64" width="4.00" shape="2.07,414.51 6.38,497.56"/>
    </edge>

    <junction id="J0" type="dead_end" x="0.13" y="656.00" incLanes="" intLanes="" shape="0.13,656.00 -15.87,656.00" customShape="1"/>
    <junction id="J1" type="dead_end" x="0.13" y="0.00" incLanes="E0_0 E0_1 E0_2 E0_3 E0_4" intLanes="" shape="-16.07,0.00 0.63,0.00" customShape="1"/>
    <junction id="J10" type="dead_end" x="0.10" y="173.58" incLanes="E3_0" intLanes="" shape="3.28,173.96 0.10,173.58"/>
    <junction id="J11" type="dead_end" x="4.38" y="497.66" incLanes="E4_0" intLanes="" shape="8.37,497.45 4.38,497.66"/>
    <junction id="J7" type="dead_end" x="2.75" y="132.35" incLanes="" intLanes="" shape="2.75,132.35 6.44,132.68" fringe="inner"/>
    <junction id="J8" type="priority" x="0.00" y="413.13" incLanes="E2_0" intLanes="" shape="0.08,414.61 4.07,414.40 3.70,411.65 0.00,411.65">
        <request index="0" response="0" foes="0"/>
    </junction>
    <junction id="J9" type="dead_end" x="5.05" y="132.37" incLanes="" intLanes="" shape="5.05,132.37 8.23,132.75"/>

    <connection from="E2" to="E4" fromLane="0" toLane="0" dir="s" state="M"/>

</net>
