<?xml version="1.0" encoding="UTF-8"?>

<!-- generated on 2022-05-31 11:58:32 by Eclipse SUMO netedit Version 1.10.0
<configuration xmlns:xsi="http://www.w3.org/2001/XMLSchema-instance" xsi:noNamespaceSchemaLocation="http://sumo.dlr.de/xsd/netconvertConfiguration.xsd">

    <input>
        <sumo-net-file value="/home/kyber/workspace/SMARTS/smarts/scenarios/merge_v0/map.net.xml"/>
    </input>

    <output>
        <output-file value="/home/kyber/workspace/SMARTS/smarts/scenarios/merge_v0/map.net.xml"/>
    </output>

    <processing>
        <geometry.min-radius.fix.railways value="false"/>
        <geometry.max-grade.fix value="false"/>
        <offset.disable-normalization value="true"/>
        <lefthand value="false"/>
    </processing>

    <junctions>
        <no-turnarounds value="true"/>
        <junctions.corner-detail value="5"/>
        <junctions.limit-turn-speed value="5.5"/>
        <rectangular-lane-cut value="false"/>
    </junctions>

    <pedestrian>
        <walkingareas value="false"/>
    </pedestrian>

    <report>
        <aggregate-warnings value="5"/>
    </report>

</configuration>
-->

<net version="1.9" junctionCornerDetail="5" limitTurnSpeed="5.50" xmlns:xsi="http://www.w3.org/2001/XMLSchema-instance" xsi:noNamespaceSchemaLocation="http://sumo.dlr.de/xsd/net_file.xsd">

    <location netOffset="0.00,0.00" convBoundary="39.23,75.98,236.67,100.17" origBoundary="-10000000000.00,-10000000000.00,10000000000.00,10000000000.00" projParameter="!"/>

    <edge id=":gneJ5_0" function="internal">
        <lane id=":gneJ5_0_0" index="0" speed="13.89" length="25.50" shape="88.23,91.57 92.23,93.02 97.29,94.74 103.72,96.18 111.83,96.79"/>
        <lane id=":gneJ5_0_1" index="1" speed="13.89" length="25.50" shape="88.23,91.57 92.17,93.52 97.12,96.34 103.53,98.88 111.83,99.99"/>
        <lane id=":gneJ5_0_2" index="2" speed="13.89" length="25.50" shape="88.23,91.57 92.08,94.02 96.89,97.94 103.26,101.58 111.82,103.19"/>
    </edge>
    <edge id=":gneJ5_3" function="internal">
        <lane id=":gneJ5_3_0" index="0" speed="13.89" length="24.54" shape="87.29,96.77 111.83,96.79"/>
        <lane id=":gneJ5_3_1" index="1" speed="13.89" length="24.54" shape="87.29,99.97 111.83,99.99"/>
        <lane id=":gneJ5_3_2" index="2" speed="13.89" length="24.54" shape="87.29,103.17 111.82,103.19"/>
    </edge>

    <edge id="gneE3" from="gneJ4" to="gneJ5" priority="-1" spreadType="center">
        <lane id="gneE3_0" index="0" speed="13.89" length="44.94" shape="42.35,96.80 87.29,96.77"/>
        <lane id="gneE3_1" index="1" speed="13.89" length="44.94" shape="42.35,100.00 87.29,99.97"/>
        <lane id="gneE3_2" index="2" speed="13.89" length="44.94" shape="42.35,103.20 87.29,103.17"/>
    </edge>
    <edge id="gneE4" from="gneJ5" to="gneJ6" priority="-1" spreadType="center">
        <lane id="gneE4_0" index="0" speed="13.89" length="124.84" shape="111.83,96.79 236.67,96.97"/>
        <lane id="gneE4_1" index="1" speed="13.89" length="124.84" shape="111.83,99.99 236.67,100.17"/>
        <lane id="gneE4_2" index="2" speed="13.89" length="124.84" shape="111.82,103.19 236.67,103.37"/>
    </edge>
    <edge id="gneE6" from="gneJ8" to="gneJ5" priority="-1" spreadType="center" shape="39.23,75.98 94.34,93.51">
        <lane id="gneE6_0" index="0" speed="13.89" length="51.42" width="5.00" shape="39.23,75.98 88.23,91.57"/>
    </edge>

    <junction id="gneJ4" type="dead_end" x="42.35" y="100.00" incLanes="" intLanes="" shape="42.35,104.80 42.35,95.20"/>
    <junction id="gneJ5" type="priority" x="94.47" y="99.96" incLanes="gneE6_0 gneE3_0 gneE3_1 gneE3_2" intLanes=":gneJ5_0_0 :gneJ5_0_1 :gneJ5_0_2 :gneJ5_3_0 :gneJ5_3_1 :gneJ5_3_2" shape="111.82,104.79 111.84,95.19 106.83,94.98 103.17,94.42 100.21,93.52 97.29,92.33 93.77,90.87 88.99,89.19 87.48,93.95 87.29,95.17 87.29,104.77" fringe="outer">
        <request index="0" response="111000" foes="111000" cont="0"/>
        <request index="1" response="111000" foes="111000" cont="0"/>
        <request index="2" response="111000" foes="111000" cont="0"/>
        <request index="3" response="000000" foes="000111" cont="0"/>
        <request index="4" response="000000" foes="000111" cont="0"/>
        <request index="5" response="000000" foes="000111" cont="0"/>
    </junction>
    <junction id="gneJ6" type="dead_end" x="236.67" y="100.17" incLanes="gneE4_0 gneE4_1 gneE4_2" intLanes="" shape="236.68,95.37 236.66,104.97"/>
    <junction id="gneJ8" type="dead_end" x="39.23" y="75.98" incLanes="" intLanes="" shape="38.47,78.36 39.99,73.60"/>

    <connection from="gneE3" to="gneE4" fromLane="0" toLane="0" via=":gneJ5_3_0" dir="s" state="M"/>
    <connection from="gneE3" to="gneE4" fromLane="1" toLane="1" via=":gneJ5_3_1" dir="s" state="M"/>
    <connection from="gneE3" to="gneE4" fromLane="2" toLane="2" via=":gneJ5_3_2" dir="s" state="M"/>
    <connection from="gneE6" to="gneE4" fromLane="0" toLane="0" via=":gneJ5_0_0" dir="s" state="m"/>
    <connection from="gneE6" to="gneE4" fromLane="0" toLane="1" via=":gneJ5_0_1" dir="s" state="m"/>
    <connection from="gneE6" to="gneE4" fromLane="0" toLane="2" via=":gneJ5_0_2" dir="s" state="m"/>

    <connection from=":gneJ5_0" to="gneE4" fromLane="0" toLane="0" dir="s" state="M"/>
    <connection from=":gneJ5_0" to="gneE4" fromLane="1" toLane="1" dir="s" state="M"/>
    <connection from=":gneJ5_0" to="gneE4" fromLane="2" toLane="2" dir="s" state="M"/>
    <connection from=":gneJ5_3" to="gneE4" fromLane="0" toLane="0" dir="s" state="M"/>
    <connection from=":gneJ5_3" to="gneE4" fromLane="1" toLane="1" dir="s" state="M"/>
    <connection from=":gneJ5_3" to="gneE4" fromLane="2" toLane="2" dir="s" state="M"/>

</net>
