<?xml version="1.0" encoding="UTF-8"?>

<!-- generated on 2023-03-09 10:25:19 by Eclipse SUMO netedit Version 1.16.0
<configuration xmlns:xsi="http://www.w3.org/2001/XMLSchema-instance" xsi:noNamespaceSchemaLocation="http://sumo.dlr.de/xsd/netconvertConfiguration.xsd">

    <input>
        <sumo-net-file value="/home/adai/workspace/SMARTS/scenarios/sumo/platoon/merge_exit_agents_1/map.net.xml"/>
    </input>

    <output>
        <output-file value="/home/adai/workspace/SMARTS/scenarios/sumo/platoon/merge_exit_agents_1/map.net.xml"/>
    </output>

    <processing>
        <geometry.min-radius.fix.railways value="false"/>
        <geometry.max-grade.fix value="false"/>
        <offset.disable-normalization value="true"/>
        <lefthand value="0"/>
    </processing>

    <junctions>
        <no-turnarounds value="true"/>
        <junctions.corner-detail value="5"/>
        <junctions.limit-turn-speed value="5.50"/>
        <rectangular-lane-cut value="0"/>
    </junctions>

    <pedestrian>
        <walkingareas value="0"/>
    </pedestrian>

</configuration>
-->

<net version="1.16" junctionCornerDetail="5" limitTurnSpeed="5.50" xmlns:xsi="http://www.w3.org/2001/XMLSchema-instance" xsi:noNamespaceSchemaLocation="http://sumo.dlr.de/xsd/net_file.xsd">

    <location netOffset="0.00,0.00" convBoundary="0.00,-50.00,600.00,0.00" origBoundary="-10000000000.00,-10000000000.00,10000000000.00,10000000000.00" projParameter="!"/>

    <edge id=":J2_0" function="internal">
        <lane id=":J2_0_0" index="0" speed="13.89" length="76.59" shape="76.32,-18.41 91.95,-14.61 113.73,-11.27 135.68,-8.90 151.82,-8.00"/>
        <lane id=":J2_0_1" index="1" speed="13.89" length="76.59" shape="76.08,-15.09 91.75,-11.31 113.61,-8.02 135.64,-5.68 151.82,-4.80"/>
        <lane id=":J2_0_2" index="2" speed="13.89" length="76.59" shape="75.83,-11.77 91.54,-8.01 113.48,-4.76 135.60,-2.47 151.82,-1.60"/>
    </edge>
    <edge id=":J2_3" function="internal">
        <lane id=":J2_3_0" index="0" speed="13.89" length="76.20" shape="75.62,-8.00 151.82,-8.00"/>
        <lane id=":J2_3_1" index="1" speed="13.89" length="76.20" shape="75.62,-4.80 151.82,-4.80"/>
        <lane id=":J2_3_2" index="2" speed="13.89" length="76.20" shape="75.62,-1.60 151.82,-1.60"/>
    </edge>
    <edge id=":J3_0" function="internal">
        <lane id=":J3_0_0" index="0" speed="13.89" length="22.12" shape="485.13,-8.00 492.48,-8.48 498.26,-9.62 502.89,-10.98 506.77,-12.11"/>
    </edge>
    <edge id=":J3_1" function="internal">
        <lane id=":J3_1_0" index="0" speed="13.89" length="21.97" shape="485.13,-8.00 507.10,-8.00"/>
        <lane id=":J3_1_1" index="1" speed="13.89" length="21.97" shape="485.13,-4.80 507.10,-4.80"/>
        <lane id=":J3_1_2" index="2" speed="13.89" length="21.97" shape="485.13,-1.60 507.10,-1.60"/>
    </edge>

    <edge id="E0" from="J0" to="J2" priority="-1" shape="0.00,-50.00 22.04,-34.44 47.86,-20.29 78.57,-9.07 111.65,-2.56 150.00,0.00">
        <lane id="E0_0" index="0" speed="13.89" length="83.44" shape="4.61,-56.54 26.28,-41.24 51.17,-27.60 76.32,-18.41"/>
        <lane id="E0_1" index="1" speed="13.89" length="83.44" shape="2.77,-53.92 24.59,-38.52 49.85,-24.67 76.08,-15.09"/>
        <lane id="E0_2" index="2" speed="13.89" length="83.44" shape="0.92,-51.31 22.89,-35.80 48.52,-21.75 75.83,-11.77"/>
    </edge>
    <edge id="E1" from="J1" to="J2" priority="-1">
        <lane id="E1_0" index="0" speed="13.89" length="75.62" shape="0.00,-8.00 75.62,-8.00"/>
        <lane id="E1_1" index="1" speed="13.89" length="75.62" shape="0.00,-4.80 75.62,-4.80"/>
        <lane id="E1_2" index="2" speed="13.89" length="75.62" shape="0.00,-1.60 75.62,-1.60"/>
    </edge>
    <edge id="E2" from="J2" to="J3" priority="-1" length="200.00">
        <lane id="E2_0" index="0" speed="13.89" length="200.00" shape="151.82,-8.00 485.13,-8.00"/>
        <lane id="E2_1" index="1" speed="13.89" length="200.00" shape="151.82,-4.80 485.13,-4.80"/>
        <lane id="E2_2" index="2" speed="13.89" length="200.00" shape="151.82,-1.60 485.13,-1.60"/>
    </edge>
    <edge id="E3" from="J3" to="J4" priority="-1">
        <lane id="E3_0" index="0" speed="13.89" length="92.90" shape="507.10,-8.00 600.00,-8.00"/>
        <lane id="E3_1" index="1" speed="13.89" length="92.90" shape="507.10,-4.80 600.00,-4.80"/>
        <lane id="E3_2" index="2" speed="13.89" length="92.90" shape="507.10,-1.60 600.00,-1.60"/>
    </edge>
    <edge id="E4" from="J3" to="J5" priority="-1" shape="450.00,0.00 480.45,-4.27 532.09,-16.42 571.47,-31.59 600.00,-50.00">
        <lane id="E4_0" index="0" speed="13.89" length="101.24" shape="506.77,-12.11 531.62,-17.95 570.74,-33.02 599.13,-51.34"/>
    </edge>

    <junction id="J0" type="dead_end" x="0.00" y="-50.00" incLanes="" intLanes="" shape="0.00,-50.00 5.54,-57.84"/>
    <junction id="J1" type="dead_end" x="0.00" y="0.00" incLanes="" intLanes="" shape="0.00,0.00 0.00,-9.60"/>
    <junction id="J2" type="priority" x="150.00" y="0.00" incLanes="E0_0 E0_1 E0_2 E1_0 E1_1 E1_2" intLanes=":J2_0_0 :J2_0_1 :J2_0_2 :J2_3_0 :J2_3_1 :J2_3_2" shape="151.82,0.00 151.82,-9.60 139.19,-9.78 126.38,-10.41 113.56,-11.62 100.87,-13.54 88.44,-16.31 76.44,-20.07 75.71,-10.11 75.62,-9.60 75.62,0.00">
        <request index="0" response="000000" foes="111000" cont="0"/>
        <request index="1" response="000000" foes="111000" cont="0"/>
        <request index="2" response="000000" foes="111000" cont="0"/>
        <request index="3" response="000111" foes="000111" cont="0"/>
        <request index="4" response="000111" foes="000111" cont="0"/>
        <request index="5" response="000111" foes="000111" cont="0"/>
    </junction>
    <junction id="J3" type="priority" x="450.00" y="0.00" incLanes="E2_0 E2_1 E2_2" intLanes=":J3_0_0 :J3_1_0 :J3_1_1 :J3_1_2" shape="507.10,0.00 507.10,-9.60 507.00,-10.52 506.55,-13.70 502.04,-12.53 498.70,-11.53 495.95,-10.71 493.17,-10.11 489.77,-9.73 485.13,-9.60 485.13,0.00">
        <request index="0" response="0000" foes="0000" cont="0"/>
        <request index="1" response="0000" foes="0000" cont="0"/>
        <request index="2" response="0000" foes="0000" cont="0"/>
        <request index="3" response="0000" foes="0000" cont="0"/>
    </junction>
    <junction id="J4" type="dead_end" x="600.00" y="0.00" incLanes="E3_0 E3_1 E3_2" intLanes="" shape="600.00,-9.60 600.00,0.00"/>
    <junction id="J5" type="dead_end" x="600.00" y="-50.00" incLanes="E4_0" intLanes="" shape="598.26,-52.69 600.00,-50.00"/>

    <connection from="E0" to="E2" fromLane="0" toLane="0" via=":J2_0_0" dir="s" state="M"/>
    <connection from="E0" to="E2" fromLane="1" toLane="1" via=":J2_0_1" dir="s" state="M"/>
    <connection from="E0" to="E2" fromLane="2" toLane="2" via=":J2_0_2" dir="s" state="M"/>
    <connection from="E1" to="E2" fromLane="0" toLane="0" via=":J2_3_0" dir="s" state="m"/>
    <connection from="E1" to="E2" fromLane="1" toLane="1" via=":J2_3_1" dir="s" state="m"/>
    <connection from="E1" to="E2" fromLane="2" toLane="2" via=":J2_3_2" dir="s" state="m"/>
    <connection from="E2" to="E4" fromLane="0" toLane="0" via=":J3_0_0" dir="R" state="M"/>
    <connection from="E2" to="E3" fromLane="0" toLane="0" via=":J3_1_0" dir="s" state="M"/>
    <connection from="E2" to="E3" fromLane="1" toLane="1" via=":J3_1_1" dir="s" state="M"/>
    <connection from="E2" to="E3" fromLane="2" toLane="2" via=":J3_1_2" dir="s" state="M"/>

    <connection from=":J2_0" to="E2" fromLane="0" toLane="0" dir="s" state="M"/>
    <connection from=":J2_0" to="E2" fromLane="1" toLane="1" dir="s" state="M"/>
    <connection from=":J2_0" to="E2" fromLane="2" toLane="2" dir="s" state="M"/>
    <connection from=":J2_3" to="E2" fromLane="0" toLane="0" dir="s" state="M"/>
    <connection from=":J2_3" to="E2" fromLane="1" toLane="1" dir="s" state="M"/>
    <connection from=":J2_3" to="E2" fromLane="2" toLane="2" dir="s" state="M"/>
    <connection from=":J3_0" to="E4" fromLane="0" toLane="0" dir="R" state="M"/>
    <connection from=":J3_1" to="E3" fromLane="0" toLane="0" dir="s" state="M"/>
    <connection from=":J3_1" to="E3" fromLane="1" toLane="1" dir="s" state="M"/>
    <connection from=":J3_1" to="E3" fromLane="2" toLane="2" dir="s" state="M"/>

</net>
