<?xml version="1.0" encoding="UTF-8"?>

<!-- generated on Mon 22 Mar 2021 01:57:08 AM EDT by Eclipse SUMO netedit Version 1.8.0
<configuration xmlns:xsi="http://www.w3.org/2001/XMLSchema-instance" xsi:noNamespaceSchemaLocation="http://sumo.dlr.de/xsd/netconvertConfiguration.xsd">

    <input>
        <sumo-net-file value="/home/kyber/work/SMARTS/scenarios/demo/map.net.xml"/>
    </input>

    <output>
        <output-file value="/home/kyber/work/SMARTS/scenarios/demo/map.net.xml"/>
    </output>

    <processing>
        <geometry.min-radius.fix.railways value="false"/>
        <geometry.max-grade.fix value="false"/>
        <offset.disable-normalization value="true"/>
        <lefthand value="false"/>
    </processing>

    <junctions>
        <no-turnarounds value="true"/>
        <junctions.corner-detail value="5"/>
        <junctions.limit-turn-speed value="5.5"/>
        <rectangular-lane-cut value="false"/>
    </junctions>

    <pedestrian>
        <walkingareas value="false"/>
    </pedestrian>

    <report>
        <aggregate-warnings value="5"/>
    </report>

</configuration>
-->

<net version="1.6" junctionCornerDetail="5" limitTurnSpeed="5.50" xmlns:xsi="http://www.w3.org/2001/XMLSchema-instance" xsi:noNamespaceSchemaLocation="http://sumo.dlr.de/xsd/net_file.xsd">

    <location netOffset="0.00,0.00" convBoundary="-68.98,34.09,72.34,117.59" origBoundary="-10000000000.00,-10000000000.00,10000000000.00,10000000000.00" projParameter="!"/>

    <edge id=":gneJ76_0" function="internal">
        <lane id=":gneJ76_0_0" index="0" speed="8.83" length="13.33" shape="-51.15,119.12 -53.70,118.58 -55.97,116.88 -57.97,114.01 -59.68,109.97"/>
    </edge>
    <edge id=":gneJ76_1" function="internal">
        <lane id=":gneJ76_1_0" index="0" speed="6.60" length="7.11" shape="-56.66,108.93 -55.82,110.62 -54.65,111.81 -53.13,112.51 -51.26,112.72"/>
    </edge>
    <edge id=":gneJ76_2" function="internal">
        <lane id=":gneJ76_2_0" index="0" speed="7.48" length="9.33" shape="-56.66,108.93 -55.41,112.01 -54.09,114.20 -52.69,115.50 -51.21,115.92"/>
    </edge>
    <edge id=":gneJ77_0" function="internal">
        <lane id=":gneJ77_0_0" index="0" speed="13.89" length="31.98" shape="14.32,121.40 -17.53,118.54"/>
    </edge>
    <edge id=":gneJ77_1" function="internal">
        <lane id=":gneJ77_1_0" index="0" speed="13.89" length="8.80" shape="14.34,118.20 5.93,116.78 5.67,116.69"/>
    </edge>
    <edge id=":gneJ77_2" function="internal">
        <lane id=":gneJ77_2_0" index="0" speed="6.80" length="7.61" shape="14.34,118.20 8.45,117.66 7.07,116.68"/>
    </edge>
    <edge id=":gneJ77_6" function="internal">
        <lane id=":gneJ77_6_0" index="0" speed="13.89" length="24.13" shape="5.67,116.69 -3.15,113.55 -11.19,109.88 -16.47,107.19"/>
    </edge>
    <edge id=":gneJ77_7" function="internal">
        <lane id=":gneJ77_7_0" index="0" speed="6.80" length="10.29" shape="7.07,116.68 6.27,116.11 7.80,113.56 13.05,110.01"/>
    </edge>
    <edge id=":gneJ77_3" function="internal">
        <lane id=":gneJ77_3_0" index="0" speed="5.55" length="11.43" shape="-17.64,112.14 -13.72,111.76 -12.22,110.81 -13.13,109.29 -16.47,107.19"/>
    </edge>
    <edge id=":gneJ77_4" function="internal">
        <lane id=":gneJ77_4_0" index="0" speed="13.89" length="30.89" shape="-17.64,112.14 -9.24,112.08 -0.18,111.94 7.83,111.36 13.05,110.01"/>
    </edge>
    <edge id=":gneJ77_5" function="internal">
        <lane id=":gneJ77_5_0" index="0" speed="13.89" length="31.95" shape="-17.59,115.34 14.36,115.00"/>
    </edge>
    <edge id=":gneJ78_0" function="internal">
        <lane id=":gneJ78_0_0" index="0" speed="8.88" length="12.70" shape="60.25,112.86 58.43,116.70 56.45,119.44 54.31,121.08 52.00,121.62"/>
    </edge>
    <edge id=":gneJ78_1" function="internal">
        <lane id=":gneJ78_1_0" index="0" speed="8.17" length="10.62" shape="60.25,112.86 58.91,115.30 57.09,117.05 54.79,118.08 52.02,118.42"/>
    </edge>
    <edge id=":gneJ78_2" function="internal">
        <lane id=":gneJ78_2_0" index="0" speed="6.64" length="6.76" shape="52.04,115.22 53.80,115.01 55.26,114.34 56.42,113.24 57.28,111.68"/>
    </edge>
    <edge id=":gneJ79_0" function="internal">
        <lane id=":gneJ79_0_0" index="0" speed="13.89" length="19.31" shape="72.15,66.90 72.55,71.32 72.51,76.57 71.97,81.77 70.88,86.03"/>
    </edge>
    <edge id=":gneJ79_1" function="internal">
        <lane id=":gneJ79_1_0" index="0" speed="11.50" length="34.12" shape="72.15,66.90 70.97,73.36 65.43,77.25 56.43,79.18 44.86,79.72"/>
    </edge>
    <edge id=":gneJ79_2" function="internal">
        <lane id=":gneJ79_2_0" index="0" speed="10.14" length="26.25" shape="44.83,73.32 55.76,72.91 63.43,71.79 67.84,69.96 68.99,67.42"/>
    </edge>
    <edge id=":gneJ79_3" function="internal">
        <lane id=":gneJ79_3_0" index="0" speed="10.30" length="31.22" shape="44.85,76.52 55.86,76.85 64.83,78.24 70.32,81.15 70.88,86.03"/>
    </edge>
    <edge id=":gneJ79_4" function="internal">
        <lane id=":gneJ79_4_0" index="0" speed="5.54" length="11.29" shape="46.21,91.08 49.41,88.89 50.26,87.34 48.75,86.41 44.89,86.12"/>
    </edge>
    <edge id=":gneJ79_5" function="internal">
        <lane id=":gneJ79_5_0" index="0" speed="13.89" length="34.25" shape="46.21,91.08 56.78,84.38 64.09,78.21 68.16,72.55 68.99,67.42"/>
    </edge>
    <edge id=":gneJ79_6" function="internal">
        <lane id=":gneJ79_6_0" index="0" speed="8.97" length="30.51" shape="46.21,91.08 55.74,85.99 64.55,82.30 70.36,81.74 70.88,86.03"/>
    </edge>
    <edge id=":gneJ79_7" function="internal">
        <lane id=":gneJ79_7_0" index="0" speed="8.97" length="23.39" shape="67.91,84.85 66.77,83.97 62.55,83.35 55.25,83.00 44.87,82.92"/>
    </edge>
    <edge id=":gneJ79_8" function="internal">
        <lane id=":gneJ79_8_0" index="0" speed="13.89" length="17.62" shape="67.91,84.85 68.97,80.86 69.44,76.24 69.42,71.57 68.99,67.42"/>
    </edge>
    <edge id=":gneJ80_0" function="internal">
        <lane id=":gneJ80_0_0" index="0" speed="13.89" length="14.52" shape="8.47,86.27 -6.09,86.26"/>
        <lane id=":gneJ80_0_1" index="1" speed="13.89" length="14.52" shape="8.45,83.07 -6.07,83.06"/>
        <lane id=":gneJ80_0_2" index="2" speed="13.89" length="14.52" shape="8.44,79.87 -6.05,79.86"/>
    </edge>
    <edge id=":gneJ80_3" function="internal">
        <lane id=":gneJ80_3_0" index="0" speed="8.75" length="5.23" shape="8.44,79.87 4.65,79.14 3.59,78.27"/>
    </edge>
    <edge id=":gneJ80_10" function="internal">
        <lane id=":gneJ80_10_0" index="0" speed="8.75" length="11.65" shape="3.59,78.27 1.90,76.88 0.18,73.12 -0.51,67.84"/>
    </edge>
    <edge id=":gneJ80_4" function="internal">
        <lane id=":gneJ80_4_0" index="0" speed="6.61" length="9.18" shape="2.69,67.75 3.11,70.26 4.20,72.06 5.97,73.13 8.41,73.47"/>
    </edge>
    <edge id=":gneJ80_5" function="internal">
        <lane id=":gneJ80_5_0" index="0" speed="9.26" length="19.87" shape="2.69,67.75 2.30,74.47 0.71,79.26 -2.08,82.12 -6.07,83.06"/>
    </edge>
    <edge id=":gneJ80_6" function="internal">
        <lane id=":gneJ80_6_0" index="0" speed="8.61" length="17.04" shape="2.69,67.75 2.27,73.07 0.67,76.86 -2.10,79.12 -6.05,79.86"/>
    </edge>
    <edge id=":gneJ80_7" function="internal">
        <lane id=":gneJ80_7_0" index="0" speed="6.43" length="9.03" shape="-6.01,73.46 -3.54,73.12 -1.80,72.07 -0.79,70.31 -0.51,67.84"/>
    </edge>
    <edge id=":gneJ80_8" function="internal">
        <lane id=":gneJ80_8_0" index="0" speed="13.89" length="14.44" shape="-6.01,73.46 8.41,73.47"/>
        <lane id=":gneJ80_8_1" index="1" speed="13.89" length="14.44" shape="-6.03,76.66 8.43,76.67"/>
    </edge>
    <edge id=":gneJ81_0" function="internal">
        <lane id=":gneJ81_0_0" index="0" speed="13.89" length="24.77" shape="-66.60,89.76 -68.01,83.75 -68.14,77.74 -66.98,71.74 -64.54,65.75"/>
    </edge>
    <edge id=":gneJ81_1" function="internal">
        <lane id=":gneJ81_1_0" index="0" speed="10.14" length="29.44" shape="-66.60,89.76 -66.96,82.91 -62.98,78.82 -55.76,76.87 -46.37,76.40"/>
    </edge>
    <edge id=":gneJ81_2" function="internal">
        <lane id=":gneJ81_2_0" index="0" speed="7.46" length="19.76" shape="-47.64,90.85 -55.59,87.07 -60.89,85.46 -63.55,86.01 -63.57,88.72"/>
    </edge>
    <edge id=":gneJ81_3" function="internal">
        <lane id=":gneJ81_3_0" index="0" speed="12.10" length="33.62" shape="-47.64,90.85 -57.51,84.66 -63.61,78.42 -65.95,72.11 -64.54,65.75"/>
    </edge>
    <edge id=":gneJ81_4" function="internal">
        <lane id=":gneJ81_4_0" index="0" speed="7.05" length="19.79" shape="-47.64,90.85 -51.59,87.01 -52.71,82.20 -50.97,78.11 -46.37,76.40"/>
    </edge>
    <edge id=":gneJ81_5" function="internal">
        <lane id=":gneJ81_5_0" index="0" speed="8.04" length="18.00" shape="-46.43,86.00 -54.30,86.13 -59.77,86.62 -62.86,87.49 -63.57,88.72"/>
    </edge>
    <edge id=":gneJ81_6" function="internal">
        <lane id=":gneJ81_6_0" index="0" speed="9.68" length="28.89" shape="-46.39,79.60 -55.40,78.99 -62.40,76.87 -65.94,72.66 -64.54,65.75"/>
    </edge>
    <edge id=":gneJ81_7" function="internal">
        <lane id=":gneJ81_7_0" index="0" speed="7.92" length="18.85" shape="-61.69,67.21 -61.87,69.79 -59.37,71.64 -54.20,72.78 -46.35,73.20"/>
    </edge>
    <edge id=":gneJ81_8" function="internal">
        <lane id=":gneJ81_8_0" index="0" speed="13.89" length="22.19" shape="-61.69,67.21 -63.89,72.60 -64.94,77.97 -64.83,83.35 -63.57,88.72"/>
    </edge>
    <edge id=":gneJ82_0" function="internal">
        <lane id=":gneJ82_0_0" index="0" speed="6.70" length="6.25" shape="-43.62,38.93 -45.24,39.10 -46.62,39.66 -47.77,40.62 -48.68,41.96"/>
    </edge>
    <edge id=":gneJ82_1" function="internal">
        <lane id=":gneJ82_1_0" index="0" speed="8.98" length="11.77" shape="-51.53,40.50 -49.48,36.99 -47.46,34.49 -45.47,33.01 -43.51,32.53"/>
    </edge>
    <edge id=":gneJ83_0" function="internal">
        <lane id=":gneJ83_0_0" index="0" speed="6.66" length="9.18" shape="-1.13,45.32 -1.54,42.82 -2.63,41.02 -4.38,39.92 -6.81,39.52"/>
    </edge>
    <edge id=":gneJ83_1" function="internal">
        <lane id=":gneJ83_1_0" index="0" speed="8.64" length="16.94" shape="-1.13,45.32 -0.71,40.04 0.86,36.24 3.59,33.95 7.47,33.15"/>
    </edge>
    <edge id=":gneJ83_2" function="internal">
        <lane id=":gneJ83_2_0" index="0" speed="6.47" length="9.03" shape="7.54,39.55 5.09,39.93 3.36,41.00 2.36,42.77 2.07,45.24"/>
    </edge>
    <edge id=":gneJ83_3" function="internal">
        <lane id=":gneJ83_3_0" index="0" speed="13.89" length="14.31" shape="7.54,39.55 -6.81,39.52"/>
        <lane id=":gneJ83_3_1" index="1" speed="13.89" length="14.31" shape="7.51,36.35 -6.76,36.32"/>
    </edge>
    <edge id=":gneJ83_5" function="internal">
        <lane id=":gneJ83_5_0" index="0" speed="13.89" length="14.18" shape="-6.71,33.12 7.47,33.15"/>
    </edge>
    <edge id=":gneJ83_6" function="internal">
        <lane id=":gneJ83_6_0" index="0" speed="8.79" length="5.05" shape="-6.71,33.12 -2.99,33.93 -2.05,34.73"/>
    </edge>
    <edge id=":gneJ83_7" function="internal">
        <lane id=":gneJ83_7_0" index="0" speed="8.79" length="11.73" shape="-2.05,34.73 -0.29,36.22 1.40,39.99 2.07,45.24"/>
    </edge>
    <edge id=":gneJ84_0" function="internal">
        <lane id=":gneJ84_0_0" index="0" speed="6.54" length="8.08" shape="65.11,43.65 64.47,41.57 63.32,40.10 61.67,39.22 59.52,38.95"/>
    </edge>
    <edge id=":gneJ84_1" function="internal">
        <lane id=":gneJ84_1_0" index="0" speed="7.38" length="10.54" shape="65.11,43.65 64.27,40.17 63.05,37.70 61.46,36.23 59.48,35.75"/>
    </edge>
    <edge id=":gneJ84_2" function="internal">
        <lane id=":gneJ84_2_0" index="0" speed="8.72" length="15.11" shape="59.45,32.55 62.65,33.18 65.19,35.16 67.06,38.47 68.27,43.13"/>
    </edge>

    <edge id="-gneE68" from="gneJ77" to="gneJ76" priority="-1">
        <lane id="-gneE68_0" index="0" speed="13.89" length="33.62" shape="-17.53,118.54 -51.15,119.12"/>
    </edge>
    <edge id="-gneE69" from="gneJ78" to="gneJ77" priority="-1">
        <lane id="-gneE69_0" index="0" speed="13.89" length="37.68" shape="52.00,121.62 14.32,121.40"/>
        <lane id="-gneE69_1" index="1" speed="13.89" length="37.68" shape="52.02,118.42 14.34,118.20"/>
    </edge>
    <edge id="-gneE70" from="gneJ79" to="gneJ78" priority="-1">
        <lane id="-gneE70_0" index="0" speed="13.89" length="28.86" shape="70.88,86.03 60.25,112.86"/>
    </edge>
    <edge id="-gneE71" from="gneJ80" to="gneJ79" priority="-1">
        <lane id="-gneE71_0" index="0" speed="13.89" length="36.42" shape="8.41,73.47 44.83,73.32"/>
        <lane id="-gneE71_1" index="1" speed="13.89" length="36.42" shape="8.43,76.67 44.85,76.52"/>
    </edge>
    <edge id="-gneE72" from="gneJ81" to="gneJ80" priority="-1">
        <lane id="-gneE72_0" index="0" speed="13.89" length="40.35" shape="-46.35,73.20 -6.01,73.46"/>
        <lane id="-gneE72_1" index="1" speed="13.89" length="40.35" shape="-46.37,76.40 -6.03,76.66"/>
    </edge>
    <edge id="-gneE73" from="gneJ81" to="gneJ76" priority="-1">
        <lane id="-gneE73_0" index="0" speed="13.89" length="21.36" shape="-63.57,88.72 -56.66,108.93"/>
    </edge>
    <edge id="-gneE74" from="gneJ82" to="gneJ81" priority="-1">
        <lane id="-gneE74_0" index="0" speed="13.89" length="28.40" shape="-48.68,41.96 -61.69,67.21"/>
    </edge>
    <edge id="-gneE75" from="gneJ83" to="gneJ82" priority="-1">
        <lane id="-gneE75_0" index="0" speed="13.89" length="36.81" shape="-6.81,39.52 -43.62,38.93"/>
        <lane id="-gneE75_1" index="1" speed="13.89" length="36.81" shape="-6.76,36.32 -43.56,35.73"/>
    </edge>
    <edge id="-gneE76" from="gneJ84" to="gneJ83" priority="-1">
        <lane id="-gneE76_0" index="0" speed="13.89" length="51.98" shape="59.52,38.95 7.54,39.55"/>
        <lane id="-gneE76_1" index="1" speed="13.89" length="51.98" shape="59.48,35.75 7.51,36.35"/>
    </edge>
    <edge id="-gneE77" from="gneJ79" to="gneJ84" priority="-1">
        <lane id="-gneE77_0" index="0" speed="13.89" length="24.08" shape="68.99,67.42 65.11,43.65"/>
    </edge>
    <edge id="-gneE78" from="gneJ83" to="gneJ80" priority="-1">
        <lane id="-gneE78_0" index="0" speed="13.89" length="22.52" shape="2.07,45.24 2.69,67.75"/>
    </edge>
    <edge id="gneE68" from="gneJ76" to="gneJ77" priority="-1">
        <lane id="gneE68_0" index="0" speed="13.89" length="33.62" shape="-51.26,112.72 -17.64,112.14"/>
        <lane id="gneE68_1" index="1" speed="13.89" length="33.62" shape="-51.21,115.92 -17.59,115.34"/>
    </edge>
    <edge id="gneE69" from="gneJ77" to="gneJ78" priority="-1">
        <lane id="gneE69_0" index="0" speed="13.89" length="37.68" shape="14.36,115.00 52.04,115.22"/>
    </edge>
    <edge id="gneE70" from="gneJ78" to="gneJ79" priority="-1">
        <lane id="gneE70_0" index="0" speed="13.89" length="28.86" shape="57.28,111.68 67.91,84.85"/>
    </edge>
    <edge id="gneE71" from="gneJ79" to="gneJ80" priority="-1">
        <lane id="gneE71_0" index="0" speed="13.89" length="36.42" shape="44.89,86.12 8.47,86.27"/>
        <lane id="gneE71_1" index="1" speed="13.89" length="36.42" shape="44.87,82.92 8.45,83.07"/>
        <lane id="gneE71_2" index="2" speed="13.89" length="36.42" shape="44.86,79.72 8.44,79.87"/>
    </edge>
    <edge id="gneE72" from="gneJ80" to="gneJ81" priority="-1">
        <lane id="gneE72_0" index="0" speed="13.89" length="40.35" shape="-6.09,86.26 -46.43,86.00"/>
        <lane id="gneE72_1" index="1" speed="13.89" length="40.35" shape="-6.07,83.06 -46.41,82.80"/>
        <lane id="gneE72_2" index="2" speed="13.89" length="40.35" shape="-6.05,79.86 -46.39,79.60"/>
    </edge>
    <edge id="gneE73" from="gneJ76" to="gneJ81" priority="-1">
        <lane id="gneE73_0" index="0" speed="13.89" length="21.36" shape="-59.68,109.97 -66.60,89.76"/>
    </edge>
    <edge id="gneE74" from="gneJ81" to="gneJ82" priority="-1">
        <lane id="gneE74_0" index="0" speed="13.89" length="28.40" shape="-64.54,65.75 -51.53,40.50"/>
    </edge>
    <edge id="gneE75" from="gneJ82" to="gneJ83" priority="-1">
        <lane id="gneE75_0" index="0" speed="13.89" length="36.81" shape="-43.51,32.53 -6.71,33.12"/>
    </edge>
    <edge id="gneE76" from="gneJ83" to="gneJ84" priority="-1">
        <lane id="gneE76_0" index="0" speed="13.89" length="51.98" shape="7.47,33.15 59.45,32.55"/>
    </edge>
    <edge id="gneE77" from="gneJ84" to="gneJ79" priority="-1">
        <lane id="gneE77_0" index="0" speed="13.89" length="24.08" shape="68.27,43.13 72.15,66.90"/>
    </edge>
    <edge id="gneE78" from="gneJ80" to="gneJ83" priority="-1">
        <lane id="gneE78_0" index="0" speed="13.89" length="22.52" shape="-0.51,67.84 -1.13,45.32"/>
    </edge>
    <edge id="gneE79" from="gneJ77" to="gneJ81" priority="-1">
        <lane id="gneE79_0" index="0" speed="13.89" length="35.20" shape="-16.47,107.19 -47.64,90.85"/>
    </edge>
    <edge id="gneE80" from="gneJ77" to="gneJ79" priority="-1">
        <lane id="gneE80_0" index="0" speed="13.89" length="38.19" shape="13.05,110.01 46.21,91.08"/>
    </edge>

    <junction id="gneJ76" type="priority" x="-55.39" y="117.59" incLanes="-gneE68_0 -gneE73_0" intLanes=":gneJ76_0_0 :gneJ76_1_0 :gneJ76_2_0" shape="-51.12,120.72 -51.29,111.12 -53.01,110.84 -53.71,110.47 -54.30,109.94 -54.77,109.26 -55.14,108.42 -61.20,110.49 -59.94,113.65 -58.51,116.22 -56.91,118.22 -55.15,119.63 -53.22,120.47">
        <request index="0" response="000" foes="000" cont="0"/>
        <request index="1" response="000" foes="000" cont="0"/>
        <request index="2" response="000" foes="000" cont="0"/>
    </junction>
    <junction id="gneJ77" type="priority" x="4.82" y="116.55" incLanes="-gneE69_0 -gneE69_1 gneE68_0 gneE68_1" intLanes=":gneJ77_0_0 :gneJ77_6_0 :gneJ77_7_0 :gneJ77_3_0 :gneJ77_4_0 :gneJ77_5_0" shape="14.31,123.00 14.37,113.40 13.84,111.40 12.26,108.62 8.48,110.25 4.35,111.04 -0.14,110.99 -4.98,110.10 -10.18,108.36 -15.73,105.78 -17.21,108.61 -17.67,110.54 -17.50,120.14 -10.71,120.25 -5.71,120.74 -1.60,121.43 2.51,122.16 7.52,122.74">
        <request index="0" response="000000" foes="000000" cont="0"/>
        <request index="1" response="111000" foes="111000" cont="1"/>
        <request index="2" response="110000" foes="110000" cont="1"/>
        <request index="3" response="000000" foes="000010" cont="0"/>
        <request index="4" response="000000" foes="000110" cont="0"/>
        <request index="5" response="000000" foes="000110" cont="0"/>
    </junction>
    <junction id="gneJ78" type="priority" x="56.95" y="116.85" incLanes="-gneE70_0 gneE69_0" intLanes=":gneJ78_0_0 :gneJ78_1_0 :gneJ78_2_0" shape="61.74,113.45 55.79,111.09 54.93,112.50 54.35,112.99 53.68,113.34 52.91,113.55 52.05,113.62 52.00,123.22 55.68,122.15 57.36,120.79 58.93,118.89 60.39,116.44">
        <request index="0" response="000" foes="000" cont="0"/>
        <request index="1" response="000" foes="000" cont="0"/>
        <request index="2" response="000" foes="000" cont="0"/>
    </junction>
    <junction id="gneJ79" type="priority" x="72.34" y="78.01" incLanes="gneE77_0 -gneE71_0 -gneE71_1 gneE80_0 gneE70_0" intLanes=":gneJ79_0_0 :gneJ79_1_0 :gneJ79_2_0 :gneJ79_3_0 :gneJ79_4_0 :gneJ79_5_0 :gneJ79_6_0 :gneJ79_7_0 :gneJ79_8_0" shape="73.73,66.64 67.41,67.68 64.63,70.17 61.10,70.91 56.47,71.38 50.96,71.63 44.83,71.72 44.89,87.72 45.42,89.69 47.01,92.47 52.06,89.63 56.83,87.07 60.99,85.03 64.19,83.72 66.11,83.39 66.42,84.26 72.37,86.62 73.86,82.59 74.72,79.50 75.04,76.85 74.91,74.15 74.44,70.91">
        <request index="0" response="000001000" foes="001001000" cont="0"/>
        <request index="1" response="100101000" foes="100101000" cont="0"/>
        <request index="2" response="000000000" foes="100100000" cont="0"/>
        <request index="3" response="000000000" foes="101100011" cont="0"/>
        <request index="4" response="000000000" foes="000000000" cont="0"/>
        <request index="5" response="000001100" foes="110001110" cont="0"/>
        <request index="6" response="000001001" foes="110001001" cont="0"/>
        <request index="7" response="001100000" foes="001100000" cont="0"/>
        <request index="8" response="001101100" foes="001101110" cont="0"/>
    </junction>
    <junction id="gneJ80" type="priority" x="1.38" y="78.30" incLanes="gneE71_0 gneE71_1 gneE71_2 -gneE78_0 -gneE72_0 -gneE72_1" intLanes=":gneJ80_0_0 :gneJ80_0_1 :gneJ80_0_2 :gneJ80_10_0 :gneJ80_4_0 :gneJ80_5_0 :gneJ80_6_0 :gneJ80_7_0 :gneJ80_8_0 :gneJ80_8_1" shape="8.47,87.87 8.41,71.87 6.17,71.42 5.38,70.84 4.80,70.03 4.44,68.99 4.29,67.71 -2.11,67.88 -2.49,70.10 -3.02,70.88 -3.79,71.43 -4.78,71.75 -6.00,71.86 -6.10,87.86">
        <request index="0" response="0000000000" foes="0001100000" cont="0"/>
        <request index="1" response="0000000000" foes="0001100000" cont="0"/>
        <request index="2" response="0000000000" foes="0001100000" cont="0"/>
        <request index="3" response="1110000000" foes="1111100000" cont="1"/>
        <request index="4" response="1100000000" foes="1100000000" cont="0"/>
        <request index="5" response="1100001111" foes="1100001111" cont="0"/>
        <request index="6" response="1100001111" foes="1100001111" cont="0"/>
        <request index="7" response="0000000000" foes="0000001000" cont="0"/>
        <request index="8" response="0000000000" foes="0001111000" cont="0"/>
        <request index="9" response="0000000000" foes="0001111000" cont="0"/>
    </junction>
    <junction id="gneJ81" type="priority" x="-68.98" y="77.86" incLanes="gneE73_0 gneE79_0 gneE72_0 gneE72_1 gneE72_2 -gneE74_0" intLanes=":gneJ81_0_0 :gneJ81_1_0 :gneJ81_2_0 :gneJ81_3_0 :gneJ81_4_0 :gneJ81_5_0 :gneJ81_6_0 :gneJ81_7_0 :gneJ81_8_0" shape="-68.11,90.28 -62.06,88.20 -61.11,86.97 -59.29,87.33 -56.56,88.33 -52.92,89.97 -48.39,92.27 -46.90,89.43 -46.44,87.60 -46.34,71.60 -51.11,71.47 -54.90,71.15 -57.71,70.64 -59.54,69.93 -60.39,69.03 -60.27,67.94 -65.96,65.01 -67.82,69.21 -69.08,73.41 -69.74,77.62 -69.80,81.84 -69.26,86.05">
        <request index="0" response="001000000" foes="001001000" cont="0"/>
        <request index="1" response="101000000" foes="101011000" cont="0"/>
        <request index="2" response="000100000" foes="100100000" cont="0"/>
        <request index="3" response="001100011" foes="101100011" cont="0"/>
        <request index="4" response="001100010" foes="001100010" cont="0"/>
        <request index="5" response="000000000" foes="100011100" cont="0"/>
        <request index="6" response="000000000" foes="100011011" cont="0"/>
        <request index="7" response="000000000" foes="000000000" cont="0"/>
        <request index="8" response="001101100" foes="001101110" cont="0"/>
    </junction>
    <junction id="gneJ82" type="priority" x="-46.42" y="34.09" incLanes="-gneE75_0 -gneE75_1 gneE74_0" intLanes=":gneJ82_0_0 :gneJ82_1_0" shape="-43.64,40.53 -43.49,30.93 -46.70,31.88 -48.29,33.10 -49.86,34.82 -51.41,37.05 -52.95,39.77 -47.26,42.70 -46.35,41.48 -45.79,41.05 -45.15,40.75 -44.43,40.58">
        <request index="0" response="00" foes="00" cont="0"/>
        <request index="1" response="00" foes="00" cont="0"/>
    </junction>
    <junction id="gneJ83" type="priority" x="0.19" y="34.83" incLanes="gneE78_0 -gneE76_0 -gneE76_1 gneE75_0" intLanes=":gneJ83_0_0 :gneJ83_1_0 :gneJ83_2_0 :gneJ83_3_0 :gneJ83_3_1 :gneJ83_5_0 :gneJ83_7_0" shape="-2.72,45.37 3.67,45.19 4.06,42.97 4.59,42.18 5.35,41.62 6.34,41.27 7.56,41.15 7.45,31.55 -6.69,31.52 -6.84,41.12 -4.60,41.62 -3.81,42.21 -3.23,43.04 -2.87,44.09">
        <request index="0" response="0011000" foes="0011000" cont="0"/>
        <request index="1" response="1111000" foes="1111000" cont="0"/>
        <request index="2" response="0000000" foes="1000000" cont="0"/>
        <request index="3" response="0000000" foes="1000011" cont="0"/>
        <request index="4" response="0000000" foes="1000011" cont="0"/>
        <request index="5" response="0000000" foes="0000010" cont="0"/>
        <request index="6" response="0011100" foes="0011110" cont="1"/>
    </junction>
    <junction id="gneJ84" type="priority" x="65.17" y="34.09" incLanes="-gneE77_0 gneE76_0" intLanes=":gneJ84_0_0 :gneJ84_1_0 :gneJ84_2_0" shape="63.53,43.91 69.85,42.87 69.01,39.20 67.82,36.21 66.26,33.88 64.34,32.23 62.07,31.26 59.43,30.95 59.54,40.55 61.51,40.91 62.26,41.37 62.84,42.02 63.27,42.87">
        <request index="0" response="000" foes="000" cont="0"/>
        <request index="1" response="000" foes="000" cont="0"/>
        <request index="2" response="000" foes="000" cont="0"/>
    </junction>

    <junction id=":gneJ77_6_0" type="internal" x="5.67" y="116.69" incLanes=":gneJ77_1_0 gneE68_0 gneE68_1" intLanes=":gneJ77_3_0 :gneJ77_4_0 :gneJ77_5_0"/>
    <junction id=":gneJ77_7_0" type="internal" x="7.07" y="116.68" incLanes=":gneJ77_2_0 gneE68_0 gneE68_1" intLanes=":gneJ77_4_0 :gneJ77_5_0"/>
    <junction id=":gneJ80_10_0" type="internal" x="3.59" y="78.27" incLanes=":gneJ80_3_0 -gneE72_0 -gneE72_1" intLanes=":gneJ80_5_0 :gneJ80_6_0 :gneJ80_7_0 :gneJ80_8_0 :gneJ80_8_1"/>
    <junction id=":gneJ83_7_0" type="internal" x="-2.05" y="34.73" incLanes=":gneJ83_6_0 -gneE76_0 -gneE76_1" intLanes=":gneJ83_1_0 :gneJ83_2_0 :gneJ83_3_0 :gneJ83_3_1"/>

    <connection from="-gneE68" to="gneE73" fromLane="0" toLane="0" via=":gneJ76_0_0" dir="l" state="M"/>
    <connection from="-gneE69" to="-gneE68" fromLane="0" toLane="0" via=":gneJ77_0_0" dir="s" state="M"/>
    <connection from="-gneE69" to="gneE79" fromLane="1" toLane="0" via=":gneJ77_1_0" dir="L" state="m"/>
    <connection from="-gneE69" to="gneE80" fromLane="1" toLane="0" via=":gneJ77_2_0" dir="l" state="m"/>
    <connection from="-gneE70" to="-gneE69" fromLane="0" toLane="0" via=":gneJ78_0_0" dir="l" state="M"/>
    <connection from="-gneE70" to="-gneE69" fromLane="0" toLane="1" via=":gneJ78_1_0" dir="l" state="M"/>
    <connection from="-gneE71" to="-gneE77" fromLane="0" toLane="0" via=":gneJ79_2_0" dir="r" state="M"/>
    <connection from="-gneE71" to="-gneE70" fromLane="1" toLane="0" via=":gneJ79_3_0" dir="l" state="M"/>
    <connection from="-gneE72" to="gneE78" fromLane="0" toLane="0" via=":gneJ80_7_0" dir="r" state="M"/>
    <connection from="-gneE72" to="-gneE71" fromLane="0" toLane="0" via=":gneJ80_8_0" dir="s" state="M"/>
    <connection from="-gneE72" to="-gneE71" fromLane="1" toLane="1" via=":gneJ80_8_1" dir="s" state="M"/>
    <connection from="-gneE73" to="gneE68" fromLane="0" toLane="0" via=":gneJ76_1_0" dir="r" state="M"/>
    <connection from="-gneE73" to="gneE68" fromLane="0" toLane="1" via=":gneJ76_2_0" dir="r" state="M"/>
    <connection from="-gneE74" to="-gneE72" fromLane="0" toLane="0" via=":gneJ81_7_0" dir="r" state="M"/>
    <connection from="-gneE74" to="-gneE73" fromLane="0" toLane="0" via=":gneJ81_8_0" dir="R" state="m"/>
    <connection from="-gneE75" to="-gneE74" fromLane="0" toLane="0" via=":gneJ82_0_0" dir="r" state="M"/>
    <connection from="-gneE76" to="-gneE78" fromLane="0" toLane="0" via=":gneJ83_2_0" dir="r" state="M"/>
    <connection from="-gneE76" to="-gneE75" fromLane="0" toLane="0" via=":gneJ83_3_0" dir="s" state="M"/>
    <connection from="-gneE76" to="-gneE75" fromLane="1" toLane="1" via=":gneJ83_3_1" dir="s" state="M"/>
    <connection from="-gneE77" to="-gneE76" fromLane="0" toLane="0" via=":gneJ84_0_0" dir="r" state="M"/>
    <connection from="-gneE77" to="-gneE76" fromLane="0" toLane="1" via=":gneJ84_1_0" dir="r" state="M"/>
    <connection from="-gneE78" to="-gneE71" fromLane="0" toLane="0" via=":gneJ80_4_0" dir="r" state="m"/>
    <connection from="-gneE78" to="gneE72" fromLane="0" toLane="1" via=":gneJ80_5_0" dir="l" state="m"/>
    <connection from="-gneE78" to="gneE72" fromLane="0" toLane="2" via=":gneJ80_6_0" dir="l" state="m"/>
    <connection from="gneE68" to="gneE79" fromLane="0" toLane="0" via=":gneJ77_3_0" dir="r" state="M"/>
    <connection from="gneE68" to="gneE80" fromLane="0" toLane="0" via=":gneJ77_4_0" dir="R" state="M"/>
    <connection from="gneE68" to="gneE69" fromLane="1" toLane="0" via=":gneJ77_5_0" dir="s" state="M"/>
    <connection from="gneE69" to="gneE70" fromLane="0" toLane="0" via=":gneJ78_2_0" dir="r" state="M"/>
    <connection from="gneE70" to="gneE71" fromLane="0" toLane="1" via=":gneJ79_7_0" dir="r" state="m"/>
    <connection from="gneE70" to="-gneE77" fromLane="0" toLane="0" via=":gneJ79_8_0" dir="s" state="m"/>
    <connection from="gneE71" to="gneE72" fromLane="0" toLane="0" via=":gneJ80_0_0" dir="s" state="M"/>
    <connection from="gneE71" to="gneE72" fromLane="1" toLane="1" via=":gneJ80_0_1" dir="s" state="M"/>
    <connection from="gneE71" to="gneE72" fromLane="2" toLane="2" via=":gneJ80_0_2" dir="s" state="M"/>
    <connection from="gneE71" to="gneE78" fromLane="2" toLane="0" via=":gneJ80_3_0" dir="l" state="m"/>
    <connection from="gneE72" to="-gneE73" fromLane="0" toLane="0" via=":gneJ81_5_0" dir="r" state="M"/>
    <connection from="gneE72" to="gneE74" fromLane="2" toLane="0" via=":gneJ81_6_0" dir="l" state="M"/>
    <connection from="gneE73" to="gneE74" fromLane="0" toLane="0" via=":gneJ81_0_0" dir="L" state="m"/>
    <connection from="gneE73" to="-gneE72" fromLane="0" toLane="1" via=":gneJ81_1_0" dir="l" state="m"/>
    <connection from="gneE74" to="gneE75" fromLane="0" toLane="0" via=":gneJ82_1_0" dir="l" state="M"/>
    <connection from="gneE75" to="gneE76" fromLane="0" toLane="0" via=":gneJ83_5_0" dir="s" state="M"/>
    <connection from="gneE75" to="-gneE78" fromLane="0" toLane="0" via=":gneJ83_6_0" dir="l" state="m"/>
    <connection from="gneE76" to="gneE77" fromLane="0" toLane="0" via=":gneJ84_2_0" dir="l" state="M"/>
    <connection from="gneE77" to="-gneE70" fromLane="0" toLane="0" via=":gneJ79_0_0" dir="s" state="m"/>
    <connection from="gneE77" to="gneE71" fromLane="0" toLane="2" via=":gneJ79_1_0" dir="l" state="m"/>