<?xml version="1.0" encoding="UTF-8"?>

<!-- generated on 2022-11-01 14:36:49 by Eclipse SUMO netconvert Version 1.10.0
<configuration xmlns:xsi="http://www.w3.org/2001/XMLSchema-instance" xsi:noNamespaceSchemaLocation="http://sumo.dlr.de/xsd/netconvertConfiguration.xsd">

    <input>
        <sumo-net-file value="scenarios/benchmark/10_agents_to_n_roads/1_roads/map.net.xml"/>
    </input>

    <output>
        <output-file value="scenarios/benchmark/10_agents_to_n_roads/1_roads/shifted_map-AUTOGEN.net.xml"/>
    </output>

    <processing>
        <geometry.min-radius.fix.railways value="false"/>
        <geometry.max-grade.fix value="false"/>
        <offset.disable-normalization value="false"/>
        <lefthand value="false"/>
    </processing>

    <junctions>
        <no-turnarounds value="true"/>
        <junctions.corner-detail value="5"/>
        <junctions.limit-turn-speed value="5.5"/>
        <rectangular-lane-cut value="false"/>
    </junctions>

    <pedestrian>
        <walkingareas value="false"/>
    </pedestrian>

    <report>
        <aggregate-warnings value="5"/>
    </report>

    <random_number>
        <seed value="618810306"/>
    </random_number>

</configuration>
-->

<net version="1.9" junctionCornerDetail="5" limitTurnSpeed="5.50" xmlns:xsi="http://www.w3.org/2001/XMLSchema-instance" xsi:noNamespaceSchemaLocation="http://sumo.dlr.de/xsd/net_file.xsd">

    <location netOffset="100.00,-100.00" convBoundary="0.00,0.00,300.00,0.00" origBoundary="-10000000000.00,-10000000000.00,10000000000.00,10000000000.00" projParameter="!"/>

    <edge id=":gneJ4_0" function="internal">
        <lane id=":gneJ4_0_0" index="0" speed="13.89" length="0.10" shape="150.30,-8.00 150.30,-8.00"/>
        <lane id=":gneJ4_0_1" index="1" speed="13.89" length="0.10" shape="150.30,-4.80 150.30,-4.80"/>
        <lane id=":gneJ4_0_2" index="2" speed="13.89" length="0.10" shape="150.30,-1.60 150.30,-1.60"/>
    </edge>

    <edge id="gneE0" from="gneJ2" to="gneJ4" priority="-1">
        <lane id="gneE0_0" index="0" speed="13.89" length="150.30" shape="-0.00,-8.00 150.30,-8.00"/>
        <lane id="gneE0_1" index="1" speed="13.89" length="150.30" shape="-0.00,-4.80 150.30,-4.80"/>
        <lane id="gneE0_2" index="2" speed="13.89" length="150.30" shape="-0.00,-1.60 150.30,-1.60"/>
    </edge>
    <edge id="gneE0.150" from="gneJ4" to="gneJ3" priority="-1">
        <lane id="gneE0.150_0" index="0" speed="13.89" length="149.70" shape="150.30,-8.00 300.00,-8.00"/>
        <lane id="gneE0.150_1" index="1" speed="13.89" length="149.70" shape="150.30,-4.80 300.00,-4.80"/>
        <lane id="gneE0.150_2" index="2" speed="13.89" length="149.70" shape="150.30,-1.60 300.00,-1.60"/>
    </edge>

    <junction id="gneJ2" type="dead_end" x="0.00" y="0.00" incLanes="" intLanes="" shape="-0.00,0.00 -0.00,-9.60"/>
    <junction id="gneJ3" type="dead_end" x="300.00" y="0.00" incLanes="gneE0.150_0 gneE0.150_1 gneE0.150_2" intLanes="" shape="300.00,-9.60 300.00,0.00"/>
    <junction id="gneJ4" type="priority" x="150.30" y="0.00" incLanes="gneE0_0 gneE0_1 gneE0_2" intLanes=":gneJ4_0_0 :gneJ4_0_1 :gneJ4_0_2" shape="150.30,0.00 150.30,-9.60 150.30,0.00">
        <request index="0" response="000" foes="000" cont="0"/>
        <request index="1" response="000" foes="000" cont="0"/>
        <request index="2" response="000" foes="000" cont="0"/>
    </junction>

    <connection from="gneE0" to="gneE0.150" fromLane="0" toLane="0" via=":gneJ4_0_0" dir="s" state="M"/>
    <connection from="gneE0" to="gneE0.150" fromLane="1" toLane="1" via=":gneJ4_0_1" dir="s" state="M"/>
    <connection from="gneE0" to="gneE0.150" fromLane="2" toLane="2" via=":gneJ4_0_2" dir="s" state="M"/>

    <connection from=":gneJ4_0" to="gneE0.150" fromLane="0" toLane="0" dir="s" state="M"/>
    <connection from=":gneJ4_0" to="gneE0.150" fromLane="1" toLane="1" dir="s" state="M"/>
    <connection from=":gneJ4_0" to="gneE0.150" fromLane="2" toLane="2" dir="s" state="M"/>

</net>
