<?xml version="1.0" encoding="UTF-8"?>

<!-- generated on 2023-02-28 13:36:19 by Eclipse SUMO netedit Version 1.15.0
<configuration xmlns:xsi="http://www.w3.org/2001/XMLSchema-instance" xsi:noNamespaceSchemaLocation="http://sumo.dlr.de/xsd/netconvertConfiguration.xsd">

    <input>
        <sumo-net-file value="scenarios/sumo/competition_2023/single_sumo_lead/map.net.xml"/>
    </input>

    <output>
        <output-file value="scenarios/sumo/competition_2023/single_sumo_lead/map.net.xml"/>
    </output>

    <processing>
        <geometry.min-radius.fix.railways value="false"/>
        <geometry.max-grade.fix value="false"/>
        <offset.disable-normalization value="true"/>
        <lefthand value="0"/>
    </processing>

    <junctions>
        <no-turnarounds value="true"/>
        <junctions.corner-detail value="5"/>
        <junctions.limit-turn-speed value="5.50"/>
        <rectangular-lane-cut value="0"/>
    </junctions>

    <pedestrian>
        <walkingareas value="0"/>
    </pedestrian>

</configuration>
-->

<net version="1.9" junctionCornerDetail="5" limitTurnSpeed="5.50" xmlns:xsi="http://www.w3.org/2001/XMLSchema-instance" xsi:noNamespaceSchemaLocation="http://sumo.dlr.de/xsd/net_file.xsd">

    <location netOffset="0.00,0.00" convBoundary="-200.00,100.00,100.00,100.00" origBoundary="-10000000000.00,-10000000000.00,10000000000.00,10000000000.00" projParameter="!"/>

    <edge id="E0" from="J0" to="J1" priority="-1">
        <lane id="E0_0" index="0" speed="13.89" length="300.00" shape="-200.00,95.20 100.00,95.20"/>
        <lane id="E0_1" index="1" speed="13.89" length="300.00" shape="-200.00,98.40 100.00,98.40"/>
    </edge>

    <junction id="J0" type="dead_end" x="-200.00" y="100.00" incLanes="" intLanes="" shape="-200.00,100.00 -200.00,93.60"/>
    <junction id="J1" type="dead_end" x="100.00" y="100.00" incLanes="E0_0 E0_1" intLanes="" shape="100.00,93.60 100.00,100.00"/>

</net>