<?xml version="1.0" encoding="UTF-8"?>

<!-- generated on 2023-05-03 17:03:58 by Eclipse SUMO netedit Version 1.16.0
<configuration xmlns:xsi="http://www.w3.org/2001/XMLSchema-instance" xsi:noNamespaceSchemaLocation="http://sumo.dlr.de/xsd/netconvertConfiguration.xsd">

    <input>
        <sumo-net-file value="./t3/training/straight_3lanes_sumo_agents_1/map.net.xml"/>
    </input>

    <output>
        <output-file value="./t3/training/straight_3lanes_sumo_agents_1/map.net.xml"/>
    </output>

    <processing>
        <geometry.min-radius.fix.railways value="false"/>
        <geometry.max-grade.fix value="false"/>
        <offset.disable-normalization value="true"/>
        <lefthand value="0"/>
    </processing>

    <junctions>
        <no-turnarounds value="true"/>
        <junctions.corner-detail value="5"/>
        <junctions.limit-turn-speed value="5.50"/>
        <rectangular-lane-cut value="0"/>
    </junctions>

    <pedestrian>
        <walkingareas value="0"/>
    </pedestrian>

</configuration>
-->

<net version="1.16" junctionCornerDetail="5" limitTurnSpeed="5.50" xmlns:xsi="http://www.w3.org/2001/XMLSchema-instance" xsi:noNamespaceSchemaLocation="http://sumo.dlr.de/xsd/net_file.xsd">

    <location netOffset="0.00,0.00" convBoundary="-20.00,-0.10,300.00,0.00" origBoundary="-10000000000.00,-10000000000.00,10000000000.00,10000000000.00" projParameter="!"/>

    <edge id=":J2_0" function="internal">
        <lane id=":J2_0_0" index="0" speed="13.89" length="22.53" shape="14.92,-8.07 37.46,-8.00"/>
        <lane id=":J2_0_1" index="1" speed="13.89" length="22.53" shape="14.93,-4.87 37.46,-4.80"/>
        <lane id=":J2_0_2" index="2" speed="13.89" length="22.53" shape="14.94,-1.67 37.46,-1.60"/>
    </edge>
    <edge id=":J3_0" function="internal">
        <lane id=":J3_0_0" index="0" speed="13.89" length="8.12" shape="84.21,-8.00 92.33,-8.00"/>
        <lane id=":J3_0_1" index="1" disallow="truck" speed="13.89" length="8.12" shape="84.21,-4.80 92.33,-4.80"/>
        <lane id=":J3_0_2" index="2" disallow="truck" speed="13.89" length="8.12" shape="84.21,-1.60 92.33,-1.60"/>
    </edge>
    <edge id=":J4_0" function="internal">
        <lane id=":J4_0_0" index="0" disallow="truck" speed="13.89" length="10.20" shape="255.46,-8.00 265.66,-8.00"/>
        <lane id=":J4_0_1" index="1" disallow="truck" speed="13.89" length="10.20" shape="255.46,-4.80 265.66,-4.80"/>
        <lane id=":J4_0_2" index="2" speed="13.89" length="10.20" shape="255.46,-1.60 265.66,-1.60"/>
    </edge>
    <edge id=":J5_0" function="internal">
        <lane id=":J5_0_0" index="0" speed="13.89" length="8.85" shape="133.44,-8.00 142.28,-8.00"/>
        <lane id=":J5_0_1" index="1" disallow="truck" speed="13.89" length="8.85" shape="133.44,-4.80 142.28,-4.80"/>
        <lane id=":J5_0_2" index="2" disallow="truck" speed="13.89" length="8.85" shape="133.44,-1.60 142.29,-1.60"/>
    </edge>
    <edge id=":J6_0" function="internal">
        <lane id=":J6_0_0" index="0" disallow="truck" speed="13.89" length="8.27" shape="200.53,-8.10 208.81,-8.00"/>
        <lane id=":J6_0_1" index="1" disallow="truck" speed="13.89" length="8.27" shape="200.53,-4.90 208.81,-4.80"/>
        <lane id=":J6_0_2" index="2" speed="13.89" length="8.27" shape="200.54,-1.70 208.81,-1.60"/>
    </edge>

    <edge id="E0" from="J0" to="J2" priority="-1" shape="-20.00,0.00 14.94,-0.07">
        <lane id="E0_0" index="0" speed="13.89" length="34.94" shape="-20.02,-8.00 14.92,-8.07" changeLeft="private emergency authority army vip pedestrian hov taxi bus coach delivery truck trailer motorcycle moped bicycle evehicle tram rail_urban rail rail_electric rail_fast ship custom1 custom2"/>
        <lane id="E0_1" index="1" speed="13.89" length="34.94" shape="-20.01,-4.80 14.93,-4.87"/>
        <lane id="E0_2" index="2" speed="13.89" length="34.94" shape="-20.00,-1.60 14.94,-1.67" changeRight="private emergency authority army vip pedestrian hov taxi bus coach delivery truck trailer motorcycle moped bicycle evehicle tram rail_urban rail rail_electric rail_fast ship custom1 custom2"/>
    </edge>
    <edge id="E1" from="J2" to="J3" priority="-1" shape="37.46,0.00 84.21,0.00">
        <lane id="E1_0" index="0" speed="13.89" length="46.75" shape="37.46,-8.00 84.21,-8.00"/>
        <lane id="E1_1" index="1" speed="13.89" length="46.75" shape="37.46,-4.80 84.21,-4.80"/>
        <lane id="E1_2" index="2" speed="13.89" length="46.75" shape="37.46,-1.60 84.21,-1.60"/>
    </edge>
    <edge id="E1.188" from="J6" to="J4" priority="-1">
        <lane id="E1.188_0" index="0" disallow="truck" speed="13.89" length="46.66" shape="208.81,-8.00 255.46,-8.00"/>
        <lane id="E1.188_1" index="1" disallow="truck" speed="13.89" length="46.66" shape="208.81,-4.80 255.46,-4.80"/>
        <lane id="E1.188_2" index="2" speed="13.89" length="46.66" shape="208.81,-1.60 255.46,-1.60"/>
    </edge>
    <edge id="E1.75" from="J3" to="J5" priority="-1">
        <lane id="E1.75_0" index="0" speed="13.89" length="41.10" shape="92.33,-8.00 133.44,-8.00"/>
        <lane id="E1.75_1" index="1" disallow="truck" speed="13.89" length="41.10" shape="92.33,-4.80 133.44,-4.80"/>
        <lane id="E1.75_2" index="2" disallow="truck" speed="13.89" length="41.10" shape="92.33,-1.60 133.44,-1.60"/>
    </edge>
    <edge id="E1.88" from="J5" to="J6" priority="-1" shape="142.29,0.00 200.54,-0.10">
        <lane id="E1.88_0" index="0" speed="13.89" length="58.25" shape="142.28,-8.00 200.53,-8.10"/>
        <lane id="E1.88_1" index="1" speed="13.89" length="58.25" shape="142.28,-4.80 200.53,-4.90"/>
        <lane id="E1.88_2" index="2" speed="13.89" length="58.25" shape="142.29,-1.60 200.54,-1.70"/>
    </edge>
    <edge id="E_end" from="J4" to="J1" priority="-1" shape="265.66,0.00 300.00,0.00">
        <lane id="E_end_0" index="0" speed="13.89" length="34.34" shape="265.66,-8.00 300.00,-8.00"/>
        <lane id="E_end_1" index="1" speed="13.89" length="34.34" shape="265.66,-4.80 300.00,-4.80"/>
        <lane id="E_end_2" index="2" speed="13.89" length="34.34" shape="265.66,-1.60 300.00,-1.60"/>
    </edge>

    <junction id="J0" type="dead_end" x="-20.00" y="0.00" incLanes="" intLanes="" shape="-20.00,-0.00 -20.02,-9.60"/>
    <junction id="J1" type="dead_end" x="300.00" y="0.00" incLanes="E_end_0 E_end_1 E_end_2" intLanes="" shape="300.00,-9.60 300.00,0.00"/>
    <junction id="J2" type="priority" x="24.76" y="0.00" incLanes="E0_0 E0_1 E0_2" intLanes=":J2_0_0 :J2_0_1 :J2_0_2" shape="37.46,0.00 37.46,-9.60 14.92,-9.67 14.94,-0.07">
        <request index="0" response="000" foes="000" cont="0"/>
        <request index="1" response="000" foes="000" cont="0"/>
        <request index="2" response="000" foes="000" cont="0"/>
    </junction>
    <junction id="J3" type="priority" x="100.46" y="0.00" incLanes="E1_0 E1_1 E1_2" intLanes=":J3_0_0 :J3_0_1 :J3_0_2" shape="92.33,0.00 92.33,-9.60 84.21,-9.60 84.21,0.00">
        <request index="0" response="000" foes="000" cont="0"/>
        <request index="1" response="000" foes="000" cont="0"/>
        <request index="2" response="000" foes="000" cont="0"/>
    </junction>
    <junction id="J4" type="priority" x="245.27" y="0.00" incLanes="E1.188_0 E1.188_1 E1.188_2" intLanes=":J4_0_0 :J4_0_1 :J4_0_2" shape="265.66,0.00 265.66,-9.60 255.46,-9.60 255.46,0.00">
        <request index="0" response="000" foes="000" cont="0"/>
        <request index="1" response="000" foes="000" cont="0"/>
        <request index="2" response="000" foes="000" cont="0"/>
    </junction>
    <junction id="J5" type="priority" x="124.89" y="0.00" incLanes="E1.75_0 E1.75_1 E1.75_2" intLanes=":J5_0_0 :J5_0_1 :J5_0_2" shape="142.29,-0.00 142.27,-9.60 133.44,-9.60 133.44,0.00">
        <request index="0" response="000" foes="000" cont="0"/>
        <request index="1" response="000" foes="000" cont="0"/>
        <request index="2" response="000" foes="000" cont="0"/>
    </junction>
    <junction id="J6" type="priority" x="216.78" y="0.00" incLanes="E1.88_0 E1.88_1 E1.88_2" intLanes=":J6_0_0 :J6_0_1 :J6_0_2" shape="208.81,0.00 208.81,-9.60 200.52,-9.70 200.54,-0.10">
        <request index="0" response="000" foes="000" cont="0"/>
        <request index="1" response="000" foes="000" cont="0"/>
        <request index="2" response="000" foes="000" cont="0"/>
    </junction>

    <connection from="E0" to="E1" fromLane="0" toLane="0" via=":J2_0_0" dir="s" state="M"/>
    <connection from="E0" to="E1" fromLane="1" toLane="1" via=":J2_0_1" dir="s" state="M"/>
    <connection from="E0" to="E1" fromLane="2" toLane="2" via=":J2_0_2" dir="s" state="M"/>
    <connection from="E1" to="E1.75" fromLane="0" toLane="0" via=":J3_0_0" dir="s" state="M"/>
    <connection from="E1" to="E1.75" fromLane="1" toLane="1" via=":J3_0_1" dir="s" state="M"/>
    <connection from="E1" to="E1.75" fromLane="2" toLane="2" via=":J3_0_2" dir="s" state="M"/>
    <connection from="E1.188" to="E_end" fromLane="0" toLane="0" via=":J4_0_0" dir="s" state="M"/>
    <connection from="E1.188" to="E_end" fromLane="1" toLane="1" via=":J4_0_1" dir="s" state="M"/>
    <connection from="E1.188" to="E_end" fromLane="2" toLane="2" via=":J4_0_2" dir="s" state="M"/>
    <connection from="E1.75" to="E1.88" fromLane="0" toLane="0" via=":J5_0_0" dir="s" state="M"/>
    <connection from="E1.75" to="E1.88" fromLane="1" toLane="1" via=":J5_0_1" dir="s" state="M"/>
    <connection from="E1.75" to="E1.88" fromLane="2" toLane="2" via=":J5_0_2" dir="s" state="M"/>
    <connection from="E1.88" to="E1.188" fromLane="0" toLane="0" via=":J6_0_0" dir="s" state="M"/>
    <connection from="E1.88" to="E1.188" fromLane="1" toLane="1" via=":J6_0_1" dir="s" state="M"/>
    <connection from="E1.88" to="E1.188" fromLane="2" toLane="2" via=":J6_0_2" dir="s" state="M"/>

    <connection from=":J2_0" to="E1" fromLane="0" toLane="0" dir="s" state="M"/>
    <connection from=":J2_0" to="E1" fromLane="1" toLane="1" dir="s" state="M"/>
    <connection from=":J2_0" to="E1" fromLane="2" toLane="2" dir="s" state="M"/>
    <connection from=":J3_0" to="E1.75" fromLane="0" toLane="0" dir="s" state="M"/>
    <connection from=":J3_0" to="E1.75" fromLane="1" toLane="1" dir="s" state="M"/>
    <connection from=":J3_0" to="E1.75" fromLane="2" toLane="2" dir="s" state="M"/>
    <connection from=":J4_0" to="E_end" fromLane="0" toLane="0" dir="s" state="M"/>
    <connection from=":J4_0" to="E_end" fromLane="1" toLane="1" dir="s" state="M"/>
    <connection from=":J4_0" to="E_end" fromLane="2" toLane="2" dir="s" state="M"/>
    <connection from=":J5_0" to="E1.88" fromLane="0" toLane="0" dir="s" state="M"/>
    <connection from=":J5_0" to="E1.88" fromLane="1" toLane="1" dir="s" state="M"/>
    <connection from=":J5_0" to="E1.88" fromLane="2" toLane="2" dir="s" state="M"/>
    <connection from=":J6_0" to="E1.188" fromLane="0" toLane="0" dir="s" state="M"/>
    <connection from=":J6_0" to="E1.188" fromLane="1" toLane="1" dir="s" state="M"/>
    <connection from=":J6_0" to="E1.188" fromLane="2" toLane="2" dir="s" state="M"/>

</net>
