<?xml version="1.0" encoding="UTF-8"?>

<!-- generated on 2022-11-02 10:45:52 by Eclipse SUMO netedit Version 1.10.0
<configuration xmlns:xsi="http://www.w3.org/2001/XMLSchema-instance" xsi:noNamespaceSchemaLocation="http://sumo.dlr.de/xsd/netconvertConfiguration.xsd">

    <input>
        <sumo-net-file value="scenarios/NGSIM/i80/map.net.xml"/>
    </input>

    <output>
        <output-file value="scenarios/NGSIM/i80/map.net.xml"/>
    </output>

    <processing>
        <geometry.min-radius.fix.railways value="false"/>
        <geometry.max-grade.fix value="false"/>
        <offset.disable-normalization value="true"/>
        <lefthand value="false"/>
    </processing>

    <junctions>
        <no-turnarounds value="true"/>
        <junctions.corner-detail value="5"/>
        <junctions.limit-turn-speed value="5.5"/>
        <rectangular-lane-cut value="false"/>
    </junctions>

    <pedestrian>
        <walkingareas value="false"/>
    </pedestrian>

    <report>
        <aggregate-warnings value="5"/>
    </report>

</configuration>
-->

<net version="1.9" junctionCornerDetail="5" limitTurnSpeed="5.50" xmlns:xsi="http://www.w3.org/2001/XMLSchema-instance" xsi:noNamespaceSchemaLocation="http://sumo.dlr.de/xsd/net_file.xsd">

    <location netOffset="0.00,0.00" convBoundary="-18.67,2.87,440.34,27.02" origBoundary="-10000000000.00,-10000000000.00,10000000000.00,10000000000.00" projParameter="!"/>

    <edge id=":cluster_J2_J8_0" function="internal">
        <lane id=":cluster_J2_J8_0_0" index="0" speed="13.89" length="16.25" width="5.00" shape="155.85,4.30 158.58,4.60 160.41,5.18 162.24,5.73 164.97,5.98"/>
        <lane id=":cluster_J2_J8_0_1" index="1" speed="13.89" length="16.25" width="3.66" shape="155.85,4.30 158.61,5.28 160.24,7.34 161.95,9.39 164.97,10.31"/>
        <lane id=":cluster_J2_J8_0_2" index="2" speed="13.89" length="16.25" width="3.66" shape="155.85,4.30 158.45,5.85 159.79,9.17 161.45,12.48 164.98,13.97"/>
        <lane id=":cluster_J2_J8_0_3" index="3" speed="13.89" length="16.25" width="3.66" shape="155.85,4.30 158.25,6.43 159.26,11.00 160.85,15.56 164.98,17.63"/>
        <lane id=":cluster_J2_J8_0_4" index="4" speed="13.89" length="16.25" width="3.66" shape="155.85,4.30 158.03,7.00 158.67,12.83 160.19,18.65 164.98,21.29"/>
        <lane id=":cluster_J2_J8_0_5" index="5" speed="13.89" length="16.25" width="3.66" shape="155.85,4.30 157.80,7.57 158.06,14.67 159.50,21.74 164.99,24.95"/>
    </edge>
    <edge id=":cluster_J2_J8_6" function="internal">
        <lane id=":cluster_J2_J8_6_0" index="0" speed="13.89" length="9.18" width="5.00" shape="155.84,6.89 158.56,6.75 160.40,6.44 162.25,6.13 164.97,5.98"/>
        <lane id=":cluster_J2_J8_6_1" index="1" speed="13.89" length="9.18" width="3.66" shape="155.83,10.55 164.97,10.31"/>
        <lane id=":cluster_J2_J8_6_2" index="2" speed="13.89" length="9.18" width="3.66" shape="155.82,14.21 164.98,13.97"/>
        <lane id=":cluster_J2_J8_6_3" index="3" speed="13.89" length="9.18" width="3.66" shape="155.81,17.87 164.98,17.63"/>
        <lane id=":cluster_J2_J8_6_4" index="4" speed="13.89" length="9.18" width="3.66" shape="155.80,21.53 164.98,21.29"/>
        <lane id=":cluster_J2_J8_6_5" index="5" speed="13.89" length="9.18" width="3.66" shape="155.79,25.19 164.99,24.95"/>
    </edge>

    <edge id="E3" from="J5" to="cluster_J2_J8" priority="-1" shape="20.71,2.87 73.27,5.33 165.66,6.98">
        <lane id="E3_0" index="0" speed="13.89" length="135.09" width="5.00" shape="20.83,0.37 73.35,2.83 155.85,4.30"/>
    </edge>
    <edge id="gneE01" from="gneJ00" to="cluster_J2_J8" priority="-1" shape="-18.67,26.50 155.78,27.02">
        <lane id="gneE01_0" index="0" speed="13.89" length="174.45" width="3.66" shape="-18.61,6.37 155.84,6.89"/>
        <lane id="gneE01_1" index="1" speed="13.89" length="174.45" width="3.66" shape="-18.62,10.03 155.83,10.55"/>
        <lane id="gneE01_2" index="2" speed="13.89" length="174.45" width="3.66" shape="-18.63,13.69 155.82,14.21"/>
        <lane id="gneE01_3" index="3" speed="13.89" length="174.45" width="3.66" shape="-18.64,17.35 155.81,17.87"/>
        <lane id="gneE01_4" index="4" speed="13.89" length="174.45" width="3.66" shape="-18.65,21.01 155.80,21.53"/>
        <lane id="gneE01_5" index="5" speed="13.89" length="174.45" width="3.66" shape="-18.66,24.67 155.79,25.19"/>
    </edge>
    <edge id="gneE01.132" from="cluster_J2_J8" to="gneJ10" priority="-1" shape="164.99,26.78 250.24,26.69 440.34,25.94">
        <lane id="gneE01.132_0" index="0" speed="13.89" length="275.32" width="5.00" shape="164.97,5.98 250.19,5.89 440.26,5.14"/>
        <lane id="gneE01.132_1" index="1" speed="13.89" length="275.32" width="3.66" shape="164.97,10.31 250.20,10.22 440.28,9.47"/>
        <lane id="gneE01.132_2" index="2" speed="13.89" length="275.32" width="3.66" shape="164.98,13.97 250.21,13.88 440.29,13.13"/>
        <lane id="gneE01.132_3" index="3" speed="13.89" length="275.32" width="3.66" shape="164.98,17.63 250.22,17.54 440.30,16.79"/>
        <lane id="gneE01.132_4" index="4" speed="13.89" length="275.32" width="3.66" shape="164.98,21.29 250.23,21.20 440.32,20.45"/>
        <lane id="gneE01.132_5" index="5" speed="13.89" length="275.32" width="3.66" shape="164.99,24.95 250.24,24.86 440.33,24.11"/>
    </edge>

    <junction id="J5" type="dead_end" x="20.71" y="2.87" incLanes="" intLanes="" shape="20.71,2.87 20.94,-2.12"/>
    <junction id="cluster_J2_J8" type="priority" x="159.46" y="18.00" incLanes="E3_0 gneE01_0 gneE01_1 gneE01_2 gneE01_3 gneE01_4 gneE01_5" intLanes=":cluster_J2_J8_0_0 :cluster_J2_J8_0_1 :cluster_J2_J8_0_2 :cluster_J2_J8_0_3 :cluster_J2_J8_0_4 :cluster_J2_J8_0_5 :cluster_J2_J8_6_0 :cluster_J2_J8_6_1 :cluster_J2_J8_6_2 :cluster_J2_J8_6_3 :cluster_J2_J8_6_4 :cluster_J2_J8_6_5" shape="164.99,26.78 164.97,3.48 161.57,3.07 160.41,2.67 159.25,2.28 157.82,1.96 155.86,1.80 155.78,27.02">
        <request index="0"  response="111111000000" foes="111111000000" cont="0"/>
        <request index="1"  response="111111000000" foes="111111000000" cont="0"/>
        <request index="2"  response="111111000000" foes="111111000000" cont="0"/>
        <request index="3"  response="111111000000" foes="111111000000" cont="0"/>
        <request index="4"  response="111111000000" foes="111111000000" cont="0"/>
        <request index="5"  response="111111000000" foes="111111000000" cont="0"/>
        <request index="6"  response="000000000000" foes="000000111111" cont="0"/>
        <request index="7"  response="000000000000" foes="000000111111" cont="0"/>
        <request index="8"  response="000000000000" foes="000000111111" cont="0"/>
        <request index="9"  response="000000000000" foes="000000111111" cont="0"/>
        <request index="10" response="000000000000" foes="000000111111" cont="0"/>
        <request index="11" response="000000000000" foes="000000111111" cont="0"/>
    </junction>
    <junction id="gneJ00" type="dead_end" x="-18.67" y="26.50" incLanes="" intLanes="" shape="-18.67,26.50 -18.60,4.54"/>
    <junction id="gneJ10" type="dead_end" x="440.34" y="25.94" incLanes="gneE01.132_0 gneE01.132_1 gneE01.132_2 gneE01.132_3 gneE01.132_4 gneE01.132_5" intLanes="" shape="440.25,2.64 440.34,25.94"/>

    <connection from="E3" to="gneE01.132" fromLane="0" toLane="0" via=":cluster_J2_J8_0_0" dir="s" state="m"/>
    <connection from="E3" to="gneE01.132" fromLane="0" toLane="1" via=":cluster_J2_J8_0_1" dir="s" state="m"/>
    <connection from="E3" to="gneE01.132" fromLane="0" toLane="2" via=":cluster_J2_J8_0_2" dir="s" state="m"/>
    <connection from="E3" to="gneE01.132" fromLane="0" toLane="3" via=":cluster_J2_J8_0_3" dir="s" state="m"/>
    <connection from="E3" to="gneE01.132" fromLane="0" toLane="4" via=":cluster_J2_J8_0_4" dir="s" state="m"/>
    <connection from="E3" to="gneE01.132" fromLane="0" toLane="5" via=":cluster_J2_J8_0_5" dir="s" state="m"/>
    <connection from="gneE01" to="gneE01.132" fromLane="0" toLane="0" via=":cluster_J2_J8_6_0" dir="s" state="M"/>
    <connection from="gneE01" to="gneE01.132" fromLane="1" toLane="1" via=":cluster_J2_J8_6_1" dir="s" state="M"/>
    <connection from="gneE01" to="gneE01.132" fromLane="2" toLane="2" via=":cluster_J2_J8_6_2" dir="s" state="M"/>
    <connection from="gneE01" to="gneE01.132" fromLane="3" toLane="3" via=":cluster_J2_J8_6_3" dir="s" state="M"/>
    <connection from="gneE01" to="gneE01.132" fromLane="4" toLane="4" via=":cluster_J2_J8_6_4" dir="s" state="M"/>
    <connection from="gneE01" to="gneE01.132" fromLane="5" toLane="5" via=":cluster_J2_J8_6_5" dir="s" state="M"/>

    <connection from=":cluster_J2_J8_0" to="gneE01.132" fromLane="0" toLane="0" dir="s" state="M"/>
    <connection from=":cluster_J2_J8_0" to="gneE01.132" fromLane="1" toLane="1" dir="s" state="M"/>
    <connection from=":cluster_J2_J8_0" to="gneE01.132" fromLane="2" toLane="2" dir="s" state="M"/>
    <connection from=":cluster_J2_J8_0" to="gneE01.132" fromLane="3" toLane="3" dir="s" state="M"/>
    <connection from=":cluster_J2_J8_0" to="gneE01.132" fromLane="4" toLane="4" dir="s" state="M"/>
    <connection from=":cluster_J2_J8_0" to="gneE01.132" fromLane="5" toLane="5" dir="s" state="M"/>
    <connection from=":cluster_J2_J8_6" to="gneE01.132" fromLane="0" toLane="0" dir="s" state="M"/>
    <connection from=":cluster_J2_J8_6" to="gneE01.132" fromLane="1" toLane="1" dir="s" state="M"/>
    <connection from=":cluster_J2_J8_6" to="gneE01.132" fromLane="2" toLane="2" dir="s" state="M"/>
    <connection from=":cluster_J2_J8_6" to="gneE01.132" fromLane="3" toLane="3" dir="s" state="M"/>
    <connection from=":cluster_J2_J8_6" to="gneE01.132" fromLane="4" toLane="4" dir="s" state="M"/>
    <connection from=":cluster_J2_J8_6" to="gneE01.132" fromLane="5" toLane="5" dir="s" state="M"/>

</net>
