<?xml version="1.0" encoding="UTF-8"?>

<!-- generated on 2021-05-16 12:58:23 by Eclipse SUMO netconvert Version 1.9.1
<configuration xmlns:xsi="http://www.w3.org/2001/XMLSchema-instance" xsi:noNamespaceSchemaLocation="http://sumo.dlr.de/xsd/netconvertConfiguration.xsd">

    <input>
        <sumo-net-file value="map.net.xml"/>
    </input>

    <output>
        <output-file value="test.steve.xml"/>
    </output>

    <projection>
        <proj.scale value="0.1524"/>
    </projection>

    <processing>
        <geometry.min-radius.fix.railways value="false"/>
        <geometry.max-grade.fix value="false"/>
        <offset.disable-normalization value="true"/>
        <lefthand value="false"/>
    </processing>

    <junctions>
        <no-internal-links value="true"/>
        <no-turnarounds value="true"/>
        <junctions.corner-detail value="5"/>
        <junctions.limit-turn-speed value="5.5"/>
        <rectangular-lane-cut value="false"/>
    </junctions>

    <pedestrian>
        <walkingareas value="false"/>
    </pedestrian>

    <report>
        <aggregate-warnings value="5"/>
    </report>

</configuration>
-->

<net version="1.9" junctionCornerDetail="5" limitTurnSpeed="5.50" xmlns:xsi="http://www.w3.org/2001/XMLSchema-instance" xsi:noNamespaceSchemaLocation="http://sumo.dlr.de/xsd/net_file.xsd">

    <location netOffset="0.00,0.00" convBoundary="-0.03,9.87,310.92,34.78" origBoundary="-10000000000.00,-10000000000.00,10000000000.00,10000000000.00" projParameter="!"/>

    <edge id="gneE11" from="gneJ24" to="gneJ25" priority="-1">
        <lane id="gneE11_0" index="0" speed="13.89" length="310.91" width="3.6576" shape="-0.00,19.09 310.91,19.07"/>
    </edge>
    <edge id="gneE12" from="gneJ26" to="gneJ27" priority="-1">
        <lane id="gneE12_0" index="0" speed="13.89" length="310.90" width="3.6576" shape="-0.00,15.40 310.90,15.37"/>
    </edge>
    <edge id="gneE13" from="gneJ28" to="gneJ29" priority="-1">
        <lane id="gneE13_0" index="0" speed="13.89" length="310.90" width="3.6576" shape="0.00,11.63 310.90,11.60"/>
    </edge>
    <edge id="gneE14" from="gneJ30" to="gneJ31" priority="-1">
        <lane id="gneE14_0" index="0" speed="13.89" length="310.90" width="3.5814" shape="-0.00,8.26 310.90,8.24"/>
    </edge>
    <edge id="gneE15" from="gneJ32" to="gneJ33" priority="-1">
        <lane id="gneE15_0" index="0" speed="13.89" length="310.90" width="3.81" shape="0.00,3.90 310.91,3.87"/>
    </edge>
    <edge id="gneE19" from="gneJ40" to="gneJ41" priority="-1" shape="-0.03,9.87 20.56,10.13 47.84,10.42 79.86,11.38 122.15,13.12 153.22,13.84 271.51,14.30 310.91,14.80">
        <lane id="gneE19_0" index="0" speed="13.89" length="311.00" width="4.0386" shape="0.14,-3.38 20.72,-3.11 48.11,-2.82 80.33,-1.87 122.58,-0.13 153.40,0.59 271.62,1.05 311.07,1.55"/>
    </edge>
    <edge id="gneE20" from="gneJ42" to="gneJ43" priority="-1" shape="0.24,14.34 19.69,14.22 122.01,14.26">
        <lane id="gneE20_0" index="0" speed="13.89" length="121.77" width="3.6576" shape="0.16,2.34 19.65,2.22 122.01,2.26"/>
    </edge>
    <edge id="gneE5" from="gneJ11" to="gneJ12" priority="-1">
        <lane id="gneE5_0" index="0" speed="13.89" length="310.92" width="3.6576" shape="0.00,22.78 310.92,22.76"/>
    </edge>

    <junction id="gneJ11" type="dead_end" x="0.00" y="34.78" incLanes="" intLanes="" shape="0.00,34.78 0.00,10.78"/>
    <junction id="gneJ12" type="dead_end" x="310.92" y="34.76" incLanes="gneE5_0" intLanes="" shape="310.92,10.76 310.92,34.76"/>
    <junction id="gneJ24" type="dead_end" x="-0.00" y="31.09" incLanes="" intLanes="" shape="-0.00,31.09 -0.00,7.09"/>
    <junction id="gneJ25" type="dead_end" x="310.91" y="31.07" incLanes="gneE11_0" intLanes="" shape="310.91,7.07 310.91,31.07"/>
    <junction id="gneJ26" type="dead_end" x="0.00" y="27.40" incLanes="" intLanes="" shape="0.00,27.40 -0.00,3.40"/>
    <junction id="gneJ27" type="dead_end" x="310.90" y="27.37" incLanes="gneE12_0" intLanes="" shape="310.90,3.37 310.90,27.37"/>
    <junction id="gneJ28" type="dead_end" x="0.00" y="23.63" incLanes="" intLanes="" shape="0.00,23.63 -0.00,-0.37"/>
    <junction id="gneJ29" type="dead_end" x="310.90" y="23.60" incLanes="gneE13_0" intLanes="" shape="310.90,-0.40 310.90,23.60"/>
    <junction id="gneJ30" type="dead_end" x="-0.00" y="20.01" incLanes="" intLanes="" shape="-0.00,20.01 -0.01,-3.49"/>
    <junction id="gneJ31" type="dead_end" x="310.90" y="19.99" incLanes="gneE14_0" intLanes="" shape="310.90,-3.51 310.90,19.99"/>
    <junction id="gneJ32" type="dead_end" x="0.01" y="16.40" incLanes="" intLanes="" shape="0.01,16.40 0.00,-8.60"/>
    <junction id="gneJ33" type="dead_end" x="310.91" y="16.37" incLanes="gneE15_0" intLanes="" shape="310.91,-8.63 310.91,16.37"/>
    <junction id="gneJ40" type="dead_end" x="-0.03" y="9.87" incLanes="" intLanes="" shape="-0.03,9.87 0.31,-16.63"/>
    <junction id="gneJ41" type="dead_end" x="310.91" y="14.80" incLanes="gneE19_0" intLanes="" shape="311.24,-11.70 310.91,14.80"/>
    <junction id="gneJ42" type="dead_end" x="0.24" y="14.34" incLanes="" intLanes="" shape="0.24,14.34 0.09,-9.66"/>
    <junction id="gneJ43" type="dead_end" x="122.01" y="14.26" incLanes="gneE20_0" intLanes="" shape="122.02,-9.74 122.01,14.26"/>

</net>
