<?xml version="1.0" encoding="UTF-8"?>
<routes xmlns:xsi="http://www.w3.org/2001/XMLSchema-instance" xsi:noNamespaceSchemaLocation="http://sumo.dlr.de/xsd/routes_file.xsd">

  <route id="mergeLeft" edges="E3s-3 E3-3l"/>
  
  <vType id="npc-lateral" accel="1.0" decel="1.0" minGap="2.5" maxSpeed="15" sigma="0.5" lcStrategic="0.0"  lcCooperative="0.0" lcSpeedGain="0.0" lcKeepRight="0.0" 
  lcOpposite="0.0" lcLookaheadLeft="0.0" lcSpeedGainRight="0.0" lcSublane="0.0" jmCrossingGap="0.0" jmIgnoreKeepClearTime="2.0" jmIgnoreFoeProb="0.0" jmTimegapMinor="1.0"
  impatience="0.0" jmIgnoreFoeSpeed="0.0"/>
  
  <vehicle id="npc-lateral-straight" type="npc-lateral" depart="0" departLane="2" arrivalLane="2" departPos="450" arrivalPos="40" route="mergeLeft" color="255,255,0"/>

</routes>