<?xml version="1.0" encoding="UTF-8"?>
<routes xmlns:xsi="http://www.w3.org/2001/XMLSchema-instance" xsi:noNamespaceSchemaLocation="http://sumo.dlr.de/xsd/routes_file.xsd">

 <vType id="lowSpeedCar" accel="3" decel="6" minGap="10" maxSpeed="5" sigma="0.5" lcStrategic="0.0" lcCooperative="0.0" lcSpeedGain="0.0" lcKeepRight="0.0" 
  lcOpposite="0.0" lcLookaheadLeft="0.0" lcSpeedGainRight="0.0" lcSublane="0.0" />
  <vType id="obsCar" accel="1.0" decel="1.0" minGap="2.5" maxSpeed="9" sigma="0.5" lcStrategic="0.0" lcCooperative="0.0" lcSpeedGain="0.0" lcKeepRight="0.0" 
  lcOpposite="0.0" lcLookaheadLeft="0.0" lcSpeedGainRight="0.0" lcSublane="0.0" />
  <route id="cutInRoute" edges="E3-3l"/>
  
  <vehicle depart="0" departLane="1" arrivalLane="1" departPos="230" departSpeed="1" id="npc-lowSpeed0" route="cutInRoute" type="lowSpeedCar" color="255, 255, 0"/>
  <vehicle depart="0" departLane="0" arrivalLane="0" departPos="200" departSpeed="6" id="npc-rightCar1" route="cutInRoute" type="obsCar" color="255,0,0"/>
  <vehicle depart="0" departLane="2" arrivalLane="2" departPos="200" departSpeed="6" id="npc-leftCar1" route="cutInRoute" type="obsCar" color="255,0,0"/>
  <vehicle depart="0" departLane="0" arrivalLane="0" departPos="150" departSpeed="6" id="npc-rightCar2" route="cutInRoute" type="obsCar" color="255,0,0"/>
  <vehicle depart="0" departLane="2" arrivalLane="2" departPos="150" departSpeed="6" id="npc-leftCar2" route="cutInRoute" type="obsCar" color="255,0,0"/>
  <vehicle depart="0" departLane="0" arrivalLane="0" departPos="100" departSpeed="6" id="npc-rightCar3" route="cutInRoute" type="obsCar" color="255,0,0"/>
  <vehicle depart="0" departLane="2" arrivalLane="2" departPos="100" departSpeed="6" id="npc-leftCar3" route="cutInRoute" type="obsCar" color="255,0,0"/>
  <vehicle depart="0" departLane="0" arrivalLane="0" departPos="50" departSpeed="6" id="npc-rightCar4" route="cutInRoute" type="obsCar" color="255,0,0"/>
  <vehicle depart="0" departLane="2" arrivalLane="2" departPos="50" departSpeed="6" id="npc-leftCar4" route="cutInRoute" type="obsCar" color="255,0,0"/>
  <vehicle depart="0" departLane="0" arrivalLane="0" departPos="0" departSpeed="6" id="npc-rightCar5" route="cutInRoute" type="obsCar" color="255,0,0"/>
  <vehicle depart="0" departLane="2" arrivalLane="2" departPos="0" departSpeed="6" id="npc-leftCar5" route="cutInRoute" type="obsCar" color="255,0,0"/>
</routes>