<?xml version="1.0" encoding="UTF-8"?>

<!-- generated on Wed 13 Jan 2021 01:07:08 AM EST by Eclipse SUMO netedit Version 1.8.0
<configuration xmlns:xsi="http://www.w3.org/2001/XMLSchema-instance" xsi:noNamespaceSchemaLocation="http://sumo.dlr.de/xsd/netconvertConfiguration.xsd">

    <input>
        <sumo-net-file value="map.net.xml"/>
    </input>

    <output>
        <output-file value="map.net.xml"/>
    </output>

    <processing>
        <geometry.min-radius.fix.railways value="false"/>
        <geometry.max-grade.fix value="false"/>
        <offset.disable-normalization value="true"/>
        <lefthand value="false"/>
    </processing>

    <junctions>
        <no-turnarounds value="true"/>
        <junctions.corner-detail value="5"/>
        <junctions.limit-turn-speed value="5.5"/>
        <rectangular-lane-cut value="false"/>
    </junctions>

    <pedestrian>
        <walkingareas value="false"/>
    </pedestrian>

    <report>
        <aggregate-warnings value="5"/>
    </report>

</configuration>
-->

<net version="1.6" junctionCornerDetail="5" limitTurnSpeed="5.50" xmlns:xsi="http://www.w3.org/2001/XMLSchema-instance" xsi:noNamespaceSchemaLocation="http://sumo.dlr.de/xsd/net_file.xsd">

    <location netOffset="-628745.98,-4834685.97" convBoundary="134.74,464.69,1575.70,1857.98" origBoundary="-79.403089,43.653893,-79.379859,43.673360" projParameter="+proj=utm +zone=17 +ellps=WGS84 +datum=WGS84 +units=m +no_defs"/>

    <type id="highway.bridleway" priority="1" numLanes="1" speed="2.78" oneway="1" width="2.00"/>
    <type id="highway.bus_guideway" priority="1" numLanes="1" speed="27.78" oneway="1"/>
    <type id="highway.cycleway" priority="1" numLanes="1" speed="8.33" oneway="1" width="1.00"/>
    <type id="highway.footway" priority="1" numLanes="1" speed="2.78" oneway="1" width="2.00"/>
    <type id="highway.ford" priority="1" numLanes="1" speed="2.78" oneway="1"/>
    <type id="highway.living_street" priority="2" numLanes="1" speed="2.78" oneway="1"/>
    <type id="highway.motorway" priority="14" numLanes="2" speed="39.44" oneway="1"/>
    <type id="highway.motorway_link" priority="9" numLanes="1" speed="22.22" oneway="1"/>
    <type id="highway.path" priority="1" numLanes="1" speed="2.78" oneway="1" width="2.00"/>
    <type id="highway.pedestrian" priority="1" numLanes="1" speed="2.78" oneway="1" width="2.00"/>
    <type id="highway.primary" priority="12" numLanes="2" speed="27.78" oneway="1"/>
    <type id="highway.primary_link" priority="7" numLanes="1" speed="22.22" oneway="1"/>
    <type id="highway.raceway" priority="15" numLanes="2" speed="83.33" oneway="1"/>
    <type id="highway.residential" priority="3" numLanes="1" speed="13.89" oneway="1"/>
    <type id="highway.secondary" priority="11" numLanes="1" speed="27.78" oneway="1"/>
    <type id="highway.secondary_link" priority="6" numLanes="1" speed="22.22" oneway="1"/>
    <type id="highway.service" priority="1" numLanes="1" speed="5.56" oneway="1"/>
    <type id="highway.stairs" priority="1" numLanes="1" speed="1.39" oneway="1" width="2.00"/>
    <type id="highway.step" priority="1" numLanes="1" speed="1.39" oneway="1" width="2.00"/>
    <type id="highway.steps" priority="1" numLanes="1" speed="1.39" oneway="1" width="2.00"/>
    <type id="highway.tertiary" priority="10" numLanes="1" speed="22.22" oneway="1"/>
    <type id="highway.tertiary_link" priority="5" numLanes="1" speed="22.22" oneway="1"/>
    <type id="highway.track" priority="1" numLanes="1" speed="5.56" oneway="1"/>
    <type id="highway.trunk" priority="13" numLanes="2" speed="27.78" oneway="1"/>
    <type id="highway.trunk_link" priority="8" numLanes="1" speed="22.22" oneway="1"/>
    <type id="highway.unclassified" priority="4" numLanes="1" speed="13.89" oneway="1"/>
    <type id="highway.unsurfaced" priority="1" numLanes="1" speed="8.33" oneway="1"/>
    <type id="railway.highspeed" priority="21" numLanes="1" speed="69.44" oneway="1"/>
    <type id="railway.light_rail" priority="19" numLanes="1" speed="27.78" oneway="1"/>
    <type id="railway.preserved" priority="16" numLanes="1" speed="27.78" oneway="1"/>
    <type id="railway.rail" priority="20" numLanes="1" speed="44.44" oneway="1"/>
    <type id="railway.subway" priority="18" numLanes="1" speed="27.78" oneway="1"/>
    <type id="railway.tram" priority="17" numLanes="1" speed="13.89" oneway="1"/>

    <edge id=":1128901966_0" function="internal">
        <lane id=":1128901966_0_0" index="0" speed="6.59" length="9.12" shape="1229.80,926.12 1227.36,925.75 1225.36,926.26 1223.81,927.64 1222.70,929.89"/>
    </edge>
    <edge id=":1128901966_1" function="internal">
        <lane id=":1128901966_1_0" index="0" speed="11.11" length="14.37" shape="1229.80,926.12 1216.08,921.84"/>
    </edge>
    <edge id=":1128901966_2" function="internal">
        <lane id=":1128901966_2_0" index="0" speed="11.11" length="14.32" shape="1217.06,918.79 1230.73,923.06"/>
    </edge>
    <edge id=":1128901966_3" function="internal">
        <lane id=":1128901966_3_0" index="0" speed="7.99" length="5.84" shape="1217.06,918.79 1220.57,920.50 1221.84,921.96"/>
    </edge>
    <edge id=":1128901966_6" function="internal">
        <lane id=":1128901966_6_0" index="0" speed="7.99" length="8.39" shape="1221.84,921.96 1222.68,922.92 1223.39,926.05 1222.70,929.89"/>
    </edge>
    <edge id=":1128901966_4" function="internal">
        <lane id=":1128901966_4_0" index="0" speed="6.49" length="9.03" shape="1219.66,928.89 1220.10,926.45 1219.65,924.46 1218.31,922.93 1216.08,921.84"/>
    </edge>
    <edge id=":1128901966_5" function="internal">
        <lane id=":1128901966_5_0" index="0" speed="8.07" length="14.18" shape="1219.66,928.89 1221.39,925.40 1223.81,923.26 1226.92,922.48 1230.73,923.06"/>
    </edge>
    <edge id=":1224706017_0" function="internal">
        <lane id=":1224706017_0_0" index="0" speed="13.89" length="0.22" shape="703.17,1710.11 703.12,1710.31"/>
        <lane id=":1224706017_0_1" index="1" speed="13.89" length="0.22" shape="700.11,1709.19 700.04,1709.42"/>
    </edge>
    <edge id=":1224706017_2" function="internal">
        <lane id=":1224706017_2_0" index="0" speed="13.89" length="0.33" shape="690.82,1706.76 690.92,1706.40"/>
        <lane id=":1224706017_2_1" index="1" speed="13.89" length="0.33" shape="693.89,1707.65 693.99,1707.33"/>
        <lane id=":1224706017_2_2" index="2" speed="13.89" length="0.33" shape="696.97,1708.54 697.05,1708.26"/>
    </edge>
    <edge id=":1224706018_0" function="internal">
        <lane id=":1224706018_0_0" index="0" speed="13.89" length="0.28" shape="695.66,1735.21 695.59,1735.47"/>
        <lane id=":1224706018_0_1" index="1" speed="13.89" length="0.28" shape="692.60,1734.28 692.52,1734.55"/>
    </edge>
    <edge id=":1224706018_2" function="internal">
        <lane id=":1224706018_2_0" index="0" speed="13.89" length="0.31" shape="683.33,1731.79 683.42,1731.48"/>
        <lane id=":1224706018_2_1" index="1" speed="13.89" length="0.31" shape="686.39,1732.71 686.48,1732.41"/>
        <lane id=":1224706018_2_2" index="2" speed="13.89" length="0.31" shape="689.46,1733.63 689.54,1733.34"/>
    </edge>
    <edge id=":123347786_0" function="internal">
        <lane id=":123347786_0_0" index="0" speed="5.56" length="14.49" shape="719.93,659.60 715.48,673.39"/>
    </edge>
    <edge id=":123347786_1" function="internal">
        <lane id=":123347786_1_0" index="0" speed="5.56" length="5.95" shape="719.93,659.60 718.25,663.08 716.68,664.45"/>
    </edge>
    <edge id=":123347786_6" function="internal">
        <lane id=":123347786_6_0" index="0" speed="5.56" length="8.31" shape="716.68,664.45 715.83,665.19 712.68,665.91 708.78,665.24"/>
    </edge>
    <edge id=":123347786_2" function="internal">
        <lane id=":123347786_2_0" index="0" speed="5.56" length="9.01" shape="709.84,662.22 712.29,662.64 714.29,662.18 715.81,660.85 716.87,658.64"/>
    </edge>
    <edge id=":123347786_3" function="internal">
        <lane id=":123347786_3_0" index="0" speed="5.56" length="14.31" shape="709.84,662.22 713.36,663.93 715.48,666.36 716.18,669.51 715.48,673.39"/>
    </edge>
    <edge id=":123347786_4" function="internal">
        <lane id=":123347786_4_0" index="0" speed="5.56" length="9.17" shape="712.44,672.37 712.89,669.90 712.43,667.89 711.06,666.34 708.78,665.24"/>
    </edge>
    <edge id=":123347786_5" function="internal">
        <lane id=":123347786_5_0" index="0" speed="5.56" length="14.43" shape="712.44,672.37 716.87,658.64"/>
    </edge>
    <edge id=":123347984_0" function="internal">
        <lane id=":123347984_0_0" index="0" speed="6.44" length="9.03" shape="550.51,621.61 548.06,621.14 546.08,621.57 544.56,622.92 543.49,625.16"/>
    </edge>
    <edge id=":123347984_1" function="internal">
        <lane id=":123347984_1_0" index="0" speed="6.95" length="14.26" shape="550.51,621.61 547.00,619.82 544.89,617.36 544.16,614.23 544.82,610.42"/>
    </edge>
    <edge id=":123347984_2" function="internal">
        <lane id=":123347984_2_0" index="0" speed="6.59" length="9.16" shape="547.86,611.41 547.44,613.85 547.92,615.85 549.29,617.43 551.55,618.58"/>
    </edge>
    <edge id=":123347984_3" function="internal">
        <lane id=":123347984_3_0" index="0" speed="8.33" length="14.43" shape="547.86,611.41 543.49,625.16"/>
    </edge>
    <edge id=":123347984_4" function="internal">
        <lane id=":123347984_4_0" index="0" speed="8.33" length="14.48" shape="540.44,624.22 544.82,610.42"/>
    </edge>
    <edge id=":123347984_5" function="internal">
        <lane id=":123347984_5_0" index="0" speed="6.95" length="6.02" shape="540.44,624.22 542.12,620.66 543.68,619.28"/>
    </edge>
    <edge id=":123347984_6" function="internal">
        <lane id=":123347984_6_0" index="0" speed="6.95" length="8.30" shape="543.68,619.28 544.54,618.53 547.68,617.84 551.55,618.58"/>
    </edge>
    <edge id=":1258698109_0" function="internal">
        <lane id=":1258698109_0_0" index="0" speed="5.56" length="14.35" shape="762.22,996.70 759.63,994.12 757.05,991.71 754.33,989.47 751.31,987.44"/>
    </edge>
    <edge id=":1258698109_1" function="internal">
        <lane id=":1258698109_1_0" index="0" speed="5.56" length="5.20" shape="762.22,996.70 760.30,993.98 759.90,992.15"/>
    </edge>
    <edge id=":1258698109_6" function="internal">
        <lane id=":1258698109_6_0" index="0" speed="5.56" length="8.73" shape="759.90,992.15 759.65,990.96 760.27,987.63 762.18,983.98"/>
    </edge>
    <edge id=":1258698109_2" function="internal">
        <lane id=":1258698109_2_0" index="0" speed="5.56" length="8.80" shape="764.41,986.40 763.22,988.69 762.83,990.79 763.25,992.71 764.48,994.43"/>
    </edge>
    <edge id=":1258698109_3" function="internal">
        <lane id=":1258698109_3_0" index="0" speed="5.56" length="14.74" shape="764.41,986.40 762.00,988.84 759.01,989.83 755.45,989.36 751.31,987.44"/>
    </edge>
    <edge id=":1258698109_4" function="internal">
        <lane id=":1258698109_4_0" index="0" speed="5.56" length="9.71" shape="753.62,985.09 756.25,986.28 758.55,986.48 760.53,985.72 762.18,983.98"/>
    </edge>
    <edge id=":1258698109_5" function="internal">
        <lane id=":1258698109_5_0" index="0" speed="5.56" length="14.36" shape="753.62,985.09 756.63,987.14 759.33,989.40 761.89,991.84 764.48,994.43"/>
    </edge>
    <edge id=":127289393_0" function="internal">
        <lane id=":127289393_0_0" index="0" speed="22.22" length="0.35" shape="594.60,1193.43 594.26,1193.33"/>
    </edge>
    <edge id=":127289393_1" function="internal">
        <lane id=":127289393_1_0" index="0" speed="22.22" length="0.12" shape="595.33,1190.31 595.45,1190.35"/>
    </edge>
    <edge id=":1404154789_0" function="internal">
        <lane id=":1404154789_0_0" index="0" speed="22.22" length="5.56" shape="424.62,1142.71 422.93,1142.73 421.77,1143.53 420.62,1144.32 418.94,1144.32"/>
        <lane id=":1404154789_0_1" index="1" speed="22.22" length="5.56" shape="424.62,1142.71 419.88,1141.26"/>
    </edge>
    <edge id=":1404154789_2" function="internal">
        <lane id=":1404154789_2_0" index="0" speed="22.22" length="4.89" shape="420.83,1138.20 425.51,1139.63"/>
    </edge>
    <edge id=":1474802478_0" function="internal">
        <lane id=":1474802478_0_0" index="0" speed="13.89" length="11.65" shape="1118.02,1120.30 1106.98,1116.59"/>
    </edge>
    <edge id=":1474802478_1" function="internal">
        <lane id=":1474802478_1_0" index="0" speed="9.17" length="5.56" shape="1118.02,1120.30 1114.89,1118.65 1113.57,1117.12"/>
    </edge>
    <edge id=":1474802478_6" function="internal">
        <lane id=":1474802478_6_0" index="0" speed="9.17" length="9.25" shape="1113.57,1117.12 1112.71,1116.12 1111.47,1112.71 1111.17,1108.41"/>
    </edge>
    <edge id=":1474802478_2" function="internal">
        <lane id=":1474802478_2_0" index="0" speed="7.87" length="10.68" shape="1114.37,1108.53 1114.56,1111.73 1115.41,1114.25 1116.90,1116.10 1119.04,1117.27"/>
    </edge>
    <edge id=":1474802478_3" function="internal">
        <lane id=":1474802478_3_0" index="0" speed="7.08" length="13.30" shape="1114.37,1108.53 1113.77,1112.94 1112.33,1115.75 1110.07,1116.97 1106.98,1116.59"/>
    </edge>
    <edge id=":1474802478_4" function="internal">
        <lane id=":1474802478_4_0" index="0" speed="5.36" length="7.07" shape="1108.00,1113.56 1109.30,1113.61 1110.27,1112.77 1110.89,1111.03 1111.17,1108.41"/>
    </edge>
    <edge id=":1474802478_5" function="internal">
        <lane id=":1474802478_5_0" index="0" speed="13.89" length="11.65" shape="1108.00,1113.56 1119.04,1117.27"/>
    </edge>
    <edge id=":152658550_0" function="internal">
        <lane id=":152658550_0_0" index="0" speed="6.52" length="8.62" shape="1197.85,1304.50 1195.54,1304.13 1193.62,1304.56 1192.09,1305.79 1190.95,1307.84"/>
    </edge>
    <edge id=":152658550_1" function="internal">
        <lane id=":152658550_1_0" index="0" speed="8.33" length="13.67" shape="1197.85,1304.50 1194.49,1303.40 1191.40,1302.26 1188.36,1300.99 1185.14,1299.50"/>
    </edge>
    <edge id=":152658550_2" function="internal">
        <lane id=":152658550_2_0" index="0" speed="8.33" length="13.21" shape="1186.52,1296.62 1189.67,1298.08 1192.57,1299.29 1195.51,1300.37 1198.81,1301.45"/>
    </edge>
    <edge id=":152658550_3" function="internal">
        <lane id=":152658550_3_0" index="0" speed="6.95" length="5.55" shape="1186.52,1296.62 1189.57,1298.65 1190.64,1300.21"/>
    </edge>
    <edge id=":152658550_6" function="internal">
        <lane id=":152658550_6_0" index="0" speed="6.95" length="7.98" shape="1190.64,1300.21 1191.32,1301.19 1191.78,1304.26 1190.95,1307.84"/>
    </edge>
    <edge id=":152658550_4" function="internal">
        <lane id=":152658550_4_0" index="0" speed="6.57" length="8.67" shape="1187.97,1306.70 1188.50,1304.40 1188.21,1302.43 1187.09,1300.80 1185.14,1299.50"/>
    </edge>
    <edge id=":152658550_5" function="internal">
        <lane id=":152658550_5_0" index="0" speed="6.95" length="13.55" shape="1187.97,1306.70 1189.75,1303.48 1192.16,1301.53 1195.17,1300.85 1198.81,1301.45"/>
    </edge>
    <edge id=":152658557_0" function="internal">
        <lane id=":152658557_0_0" index="0" speed="5.56" length="3.95" shape="1189.42,1311.83 1189.13,1312.96 1189.09,1313.78 1189.03,1314.59 1188.63,1315.67"/>
    </edge>
    <edge id=":152658557_1" function="internal">
        <lane id=":152658557_1_0" index="0" speed="5.56" length="3.94" shape="1184.25,1313.93 1184.86,1312.94 1185.40,1312.34 1185.92,1311.72 1186.44,1310.69"/>
    </edge>
    <edge id=":1584174287_0" function="internal">
        <lane id=":1584174287_0_0" index="0" speed="5.33" length="2.54" shape="926.91,1643.56 927.14,1644.17 927.15,1644.74 927.01,1645.34 926.78,1645.99"/>
    </edge>
    <edge id=":1584174287_1" function="internal">
        <lane id=":1584174287_1_0" index="0" speed="5.56" length="0.42" shape="923.75,1644.98 924.13,1645.15"/>
    </edge>
    <edge id=":1584174288_0" function="internal">
        <lane id=":1584174288_0_0" index="0" speed="5.56" length="13.97" shape="926.72,1646.18 922.67,1659.56"/>
    </edge>
    <edge id=":1584174288_1" function="internal">
        <lane id=":1584174288_1_0" index="0" speed="5.56" length="14.26" shape="926.72,1646.18 925.14,1649.17 922.69,1651.23 919.38,1652.38 915.21,1652.61"/>
    </edge>
    <edge id=":1584174288_2" function="internal">
        <lane id=":1584174288_2_0" index="0" speed="5.56" length="10.08" shape="915.37,1649.42 918.43,1649.28 920.84,1648.52 922.59,1647.15 923.69,1645.17"/>
    </edge>
    <edge id=":1584174288_3" function="internal">
        <lane id=":1584174288_3_0" index="0" speed="5.56" length="15.12" shape="915.37,1649.42 919.58,1650.24 922.20,1652.20 923.23,1655.30 922.67,1659.56"/>
    </edge>
    <edge id=":1584174288_4" function="internal">
        <lane id=":1584174288_4_0" index="0" speed="5.56" length="9.07" shape="919.59,1658.69 919.92,1656.14 919.30,1654.28 917.73,1653.10 915.21,1652.61"/>
    </edge>
    <edge id=":1584174288_5" function="internal">
        <lane id=":1584174288_5_0" index="0" speed="5.56" length="14.13" shape="919.59,1658.69 923.69,1645.17"/>
    </edge>
    <edge id=":1633443103_0" function="internal">
        <lane id=":1633443103_0_0" index="0" speed="13.89" length="0.30" shape="1317.14,1262.57 1316.87,1262.49"/>
        <lane id=":1633443103_0_1" index="1" speed="13.89" length="0.30" shape="1318.10,1259.52 1317.81,1259.43"/>
    </edge>
    <edge id=":1633501863_0" function="internal">
        <lane id=":1633501863_0_0" index="0" speed="7.17" length="11.09" shape="1144.68,1129.24 1141.65,1128.68 1139.17,1129.19 1137.25,1130.77 1135.87,1133.42"/>
    </edge>
    <edge id=":1633501863_1" function="internal">
        <lane id=":1633501863_1_0" index="0" speed="13.89" length="14.64" shape="1144.68,1129.24 1130.80,1124.60"/>
    </edge>
    <edge id=":1633501863_2" function="internal">
        <lane id=":1633501863_2_0" index="0" speed="13.89" length="14.62" shape="1131.82,1121.57 1145.69,1126.20"/>
    </edge>
    <edge id=":1633501863_3" function="internal">
        <lane id=":1633501863_3_0" index="0" speed="7.99" length="4.99" shape="1131.82,1121.57 1134.81,1123.23 1135.68,1124.54"/>
    </edge>
    <edge id=":1633501863_6" function="internal">
        <lane id=":1633501863_6_0" index="0" speed="7.99" length="9.25" shape="1135.68,1124.54 1136.48,1125.76 1136.83,1129.15 1135.87,1133.42"/>
    </edge>
    <edge id=":1633501863_4" function="internal">
        <lane id=":1633501863_4_0" index="0" speed="6.00" length="9.08" shape="1133.16,1131.60 1134.30,1129.26 1134.28,1127.32 1133.12,1125.77 1130.80,1124.60"/>
    </edge>
    <edge id=":1633501863_5" function="internal">
        <lane id=":1633501863_5_0" index="0" speed="9.11" length="14.75" shape="1133.16,1131.60 1135.93,1128.34 1138.93,1126.35 1142.19,1125.64 1145.69,1126.20"/>
    </edge>
    <edge id=":1633501867_0" function="internal">
        <lane id=":1633501867_0_0" index="0" speed="5.56" length="14.40" shape="1119.76,1197.75 1106.02,1193.43"/>
    </edge>
    <edge id=":1633501867_1" function="internal">
        <lane id=":1633501867_1_0" index="0" speed="5.56" length="14.30" shape="1119.76,1197.75 1116.22,1196.05 1114.10,1193.63 1113.41,1190.49 1114.15,1186.63"/>
    </edge>
    <edge id=":1633501867_2" function="internal">
        <lane id=":1633501867_2_0" index="0" speed="5.56" length="9.03" shape="1117.18,1187.67 1116.71,1190.11 1117.14,1192.10 1118.48,1193.63 1120.72,1194.70"/>
    </edge>
    <edge id=":1633501867_3" function="internal">
        <lane id=":1633501867_3_0" index="0" speed="5.56" length="14.23" shape="1117.18,1187.67 1115.40,1191.17 1112.95,1193.29 1109.82,1194.05 1106.02,1193.43"/>
    </edge>
    <edge id=":1633501867_4" function="internal">
        <lane id=":1633501867_4_0" index="0" speed="5.56" length="9.17" shape="1106.98,1190.38 1109.42,1190.77 1111.43,1190.27 1113.00,1188.89 1114.15,1186.63"/>
    </edge>
    <edge id=":1633501867_5" function="internal">
        <lane id=":1633501867_5_0" index="0" speed="5.56" length="14.40" shape="1106.98,1190.38 1120.72,1194.70"/>
    </edge>
    <edge id=":1721793023_0" function="internal">
        <lane id=":1721793023_0_0" index="0" speed="13.89" length="11.42" shape="1106.79,1116.53 1095.92,1113.03"/>
    </edge>
    <edge id=":1721793023_1" function="internal">
        <lane id=":1721793023_1_0" index="0" speed="8.09" length="3.80" shape="1106.79,1116.53 1104.85,1115.28 1104.11,1113.98"/>
    </edge>
    <edge id=":1721793023_6" function="internal">
        <lane id=":1721793023_6_0" index="0" speed="8.09" length="8.32" shape="1104.11,1113.98 1103.60,1113.09 1103.05,1109.94 1103.19,1105.85"/>
    </edge>
    <edge id=":1721793023_2" function="internal">
        <lane id=":1721793023_2_0" index="0" speed="6.63" length="7.84" shape="1106.37,1106.19 1106.20,1109.11 1106.38,1111.31 1106.92,1112.77 1107.81,1113.49"/>
    </edge>
    <edge id=":1721793023_3" function="internal">
        <lane id=":1721793023_3_0" index="0" speed="7.69" length="15.01" shape="1106.37,1106.19 1105.33,1110.29 1103.23,1112.80 1100.10,1113.71 1095.92,1113.03"/>
    </edge>
    <edge id=":1721793023_4" function="internal">
        <lane id=":1721793023_4_0" index="0" speed="6.12" length="9.06" shape="1096.88,1109.97 1099.40,1110.39 1101.30,1109.84 1102.56,1108.32 1103.19,1105.85"/>
    </edge>
    <edge id=":1721793023_5" function="internal">
        <lane id=":1721793023_5_0" index="0" speed="13.89" length="11.48" shape="1096.88,1109.97 1107.81,1113.49"/>
    </edge>
    <edge id=":1721865354_0" function="internal">
        <lane id=":1721865354_0_0" index="0" speed="13.89" length="19.07" shape="991.71,738.45 995.44,734.51 997.74,731.52 999.33,728.12 1000.94,722.96"/>
        <lane id=":1721865354_0_1" index="1" speed="13.89" length="19.07" shape="994.61,740.05 998.46,735.93 1000.78,732.79 1002.37,729.22 1004.02,723.84"/>
        <lane id=":1721865354_0_2" index="2" speed="13.89" length="19.07" shape="997.52,741.64 1001.48,737.36 1003.83,734.06 1005.42,730.32 1007.09,724.72"/>
    </edge>
    <edge id=":1721865354_3" function="internal">
        <lane id=":1721865354_3_0" index="0" speed="10.52" length="18.92" shape="1005.77,742.30 1003.43,739.72 1002.35,735.78 1002.55,730.49 1004.02,723.84"/>
        <lane id=":1721865354_3_1" index="1" speed="10.12" length="18.92" shape="1005.77,742.30 1004.67,740.45 1004.53,736.90 1005.34,731.66 1007.09,724.72"/>
    </edge>
    <edge id=":1721865771_0" function="internal">
        <lane id=":1721865771_0_0" index="0" speed="5.56" length="1.98" shape="1143.39,860.35 1143.45,860.93 1143.45,861.33 1143.38,861.73 1143.22,862.29"/>
    </edge>
    <edge id=":1721865771_1" function="internal">
        <lane id=":1721865771_1_0" index="0" speed="5.56" length="0.66" shape="1140.16,861.36 1140.21,861.17 1140.23,861.04 1140.23,860.90 1140.21,860.71"/>
    </edge>
    <edge id=":1721865829_0" function="internal">
        <lane id=":1721865829_0_0" index="0" speed="5.56" length="0.30" shape="1137.98,879.43 1137.89,879.72"/>
    </edge>
    <edge id=":1721865829_1" function="internal">
        <lane id=":1721865829_1_0" index="0" speed="5.56" length="0.30" shape="1134.84,878.78 1134.92,878.50"/>
    </edge>
    <edge id=":1721865832_0" function="internal">
        <lane id=":1721865832_0_0" index="0" speed="11.11" length="14.42" shape="1100.54,886.19 1097.03,885.02 1093.63,883.84 1090.20,883.02 1086.60,882.93"/>
    </edge>
    <edge id=":1721865832_1" function="internal">
        <lane id=":1721865832_1_0" index="0" speed="7.97" length="6.79" shape="1100.54,886.19 1096.90,884.57 1094.98,882.51"/>
    </edge>
    <edge id=":1721865832_6" function="internal">
        <lane id=":1721865832_6_0" index="0" speed="7.97" length="7.53" shape="1094.98,882.51 1094.69,882.21 1093.88,879.10 1094.49,875.25"/>
    </edge>
    <edge id=":1721865832_2" function="internal">
        <lane id=":1721865832_2_0" index="0" speed="6.50" length="9.16" shape="1097.58,876.10 1097.19,878.57 1097.69,880.56 1099.11,882.08 1101.42,883.11"/>
    </edge>
    <edge id=":1721865832_3" function="internal">
        <lane id=":1721865832_3_0" index="0" speed="8.33" length="13.69" shape="1097.58,876.10 1096.21,878.72 1093.92,880.73 1090.72,882.13 1086.60,882.93"/>
    </edge>
    <edge id=":1721865832_4" function="internal">
        <lane id=":1721865832_4_0" index="0" speed="7.60" length="8.70" shape="1087.53,879.61 1090.14,879.11 1092.17,878.21 1093.62,876.92 1094.49,875.25"/>
    </edge>
    <edge id=":1721865832_5" function="internal">
        <lane id=":1721865832_5_0" index="0" speed="11.11" length="14.43" shape="1087.53,879.61 1091.13,879.74 1094.54,880.64 1097.92,881.91 1101.42,883.11"/>
    </edge>
    <edge id=":1721865848_0" function="internal">
        <lane id=":1721865848_0_0" index="0" speed="11.11" length="14.27" shape="1138.24,897.22 1124.58,893.09"/>
    </edge>
    <edge id=":1721865848_1" function="internal">
        <lane id=":1721865848_1_0" index="0" speed="8.02" length="5.71" shape="1138.24,897.22 1134.78,895.54 1133.56,894.13"/>
    </edge>
    <edge id=":1721865848_6" function="internal">
        <lane id=":1721865848_6_0" index="0" speed="8.02" length="8.48" shape="1133.56,894.13 1132.69,893.13 1131.95,889.98 1132.58,886.11"/>
    </edge>
    <edge id=":1721865848_2" function="internal">
        <lane id=":1721865848_2_0" index="0" speed="6.51" length="9.00" shape="1135.61,887.13 1135.22,889.58 1135.68,891.57 1137.01,893.10 1139.21,894.17"/>
    </edge>
    <edge id=":1721865848_3" function="internal">
        <lane id=":1721865848_3_0" index="0" speed="8.07" length="14.24" shape="1135.61,887.13 1133.95,890.64 1131.56,892.81 1128.44,893.63 1124.58,893.09"/>
    </edge>
    <edge id=":1721865848_4" function="internal">
        <lane id=":1721865848_4_0" index="0" speed="6.61" length="9.22" shape="1125.46,890.01 1127.94,890.35 1129.96,889.82 1131.50,888.40 1132.58,886.11"/>
    </edge>
    <edge id=":1721865848_5" function="internal">
        <lane id=":1721865848_5_0" index="0" speed="11.11" length="14.36" shape="1125.46,890.01 1139.21,894.17"/>
    </edge>
    <edge id=":1721865907_0" function="internal">
        <lane id=":1721865907_0_0" index="0" speed="5.56" length="0.30" shape="867.45,937.04 867.36,937.32"/>
    </edge>
    <edge id=":1721865907_1" function="internal">
        <lane id=":1721865907_1_0" index="0" speed="5.56" length="0.30" shape="864.33,936.29 864.43,936.00"/>
    </edge>
    <edge id=":1721866188_0" function="internal">
        <lane id=":1721866188_0_0" index="0" speed="5.56" length="9.03" shape="950.84,1026.12 948.39,1025.74 946.41,1026.24 944.90,1027.61 943.86,1029.85"/>
    </edge>
    <edge id=":1721866188_1" function="internal">
        <lane id=":1721866188_1_0" index="0" speed="5.56" length="14.17" shape="950.84,1026.12 947.31,1024.48 945.13,1022.11 944.28,1019.02 944.77,1015.20"/>
    </edge>
    <edge id=":1721866188_2" function="internal">
        <lane id=":1721866188_2_0" index="0" speed="5.56" length="9.10" shape="947.85,1016.06 947.54,1018.50 948.09,1020.49 949.50,1022.00 951.77,1023.06"/>
    </edge>
    <edge id=":1721866188_3" function="internal">
        <lane id=":1721866188_3_0" index="0" speed="5.56" length="14.36" shape="947.85,1016.06 943.86,1029.85"/>
    </edge>
    <edge id=":1721866188_4" function="internal">
        <lane id=":1721866188_4_0" index="0" speed="5.56" length="14.29" shape="940.79,1028.93 944.77,1015.20"/>
    </edge>
    <edge id=":1721866188_5" function="internal">
        <lane id=":1721866188_5_0" index="0" speed="5.56" length="14.20" shape="940.79,1028.93 942.44,1025.40 944.81,1023.24 947.92,1022.46 951.77,1023.06"/>
    </edge>
    <edge id=":1721866196_0" function="internal">
        <lane id=":1721866196_0_0" index="0" speed="3.65" length="4.67" shape="981.22,1032.03 982.13,1033.14 982.28,1034.03 981.66,1034.67 980.28,1035.09"/>
    </edge>
    <edge id=":1721866215_0" function="internal">
        <lane id=":1721866215_0_0" index="0" speed="22.22" length="14.28" shape="879.85,1041.05 866.17,1036.96"/>
    </edge>
    <edge id=":1721866215_1" function="internal">
        <lane id=":1721866215_1_0" index="0" speed="7.94" length="5.93" shape="879.85,1041.05 876.24,1039.35 874.94,1037.92"/>
    </edge>
    <edge id=":1721866215_6" function="internal">
        <lane id=":1721866215_6_0" index="0" speed="7.94" length="8.34" shape="874.94,1037.92 874.07,1036.95 873.33,1033.85 874.04,1030.06"/>
    </edge>
    <edge id=":1721866215_2" function="internal">
        <lane id=":1721866215_2_0" index="0" speed="6.48" length="9.14" shape="877.12,1030.94 876.66,1033.38 877.12,1035.37 878.50,1036.91 880.80,1038.00"/>
    </edge>
    <edge id=":1721866215_3" function="internal">
        <lane id=":1721866215_3_0" index="0" speed="8.13" length="14.09" shape="877.12,1030.94 875.36,1034.44 872.95,1036.61 869.88,1037.45 866.17,1036.96"/>
    </edge>
    <edge id=":1721866215_4" function="internal">
        <lane id=":1721866215_4_0" index="0" speed="6.61" length="8.99" shape="867.04,1033.89 869.42,1034.20 871.38,1033.67 872.92,1032.29 874.04,1030.06"/>
    </edge>
    <edge id=":1721866215_5" function="internal">
        <lane id=":1721866215_5_0" index="0" speed="22.22" length="14.36" shape="867.04,1033.89 880.80,1038.00"/>
    </edge>
    <edge id=":1721866226_0" function="internal">
        <lane id=":1721866226_0_0" index="0" speed="5.56" length="9.31" shape="945.05,1044.42 942.49,1043.98 940.37,1044.40 938.71,1045.67 937.49,1047.80"/>
    </edge>
    <edge id=":1721866226_1" function="internal">
        <lane id=":1721866226_1_0" index="0" speed="5.56" length="14.33" shape="945.05,1044.42 941.48,1042.72 939.36,1040.30 938.68,1037.16 939.44,1033.28"/>
    </edge>
    <edge id=":1721866226_2" function="internal">