<?xml version="1.0" encoding="UTF-8"?>

<!-- generated on Tue  1 Dec 10:58:20 2020 by Eclipse SUMO netedit Version 1.7.0
<configuration xmlns:xsi="http://www.w3.org/2001/XMLSchema-instance" xsi:noNamespaceSchemaLocation="http://sumo.dlr.de/xsd/netconvertConfiguration.xsd">

    <input>
        <sumo-net-file value="/Users/julian/Downloads/net.net.xml"/>
    </input>

    <output>
        <output-file value="/Users/julian/Downloads/net.net.xml"/>
    </output>

    <processing>
        <geometry.min-radius.fix.railways value="false"/>
        <geometry.max-grade.fix value="false"/>
        <offset.disable-normalization value="true"/>
        <lefthand value="false"/>
    </processing>

    <junctions>
        <no-turnarounds value="true"/>
        <junctions.corner-detail value="5"/>
        <junctions.limit-turn-speed value="5.5"/>
        <rectangular-lane-cut value="false"/>
    </junctions>

    <pedestrian>
        <walkingareas value="false"/>
    </pedestrian>

    <report>
        <aggregate-warnings value="5"/>
    </report>

</configuration>
-->

<net version="1.6" junctionCornerDetail="5" limitTurnSpeed="5.50" xmlns:xsi="http://www.w3.org/2001/XMLSchema-instance" xsi:noNamespaceSchemaLocation="http://sumo.dlr.de/xsd/net_file.xsd">

    <location netOffset="-629008.35,-4835216.08" convBoundary="3.03,0.00,1140.64,1235.01" origBoundary="-79.399817,43.658696,-79.385848,43.669724" projParameter="+proj=utm +zone=17 +ellps=WGS84 +datum=WGS84 +units=m +no_defs"/>

    <type id="highway.bridleway" priority="1" numLanes="1" speed="2.78" allow="pedestrian" oneway="1" width="2.00"/>
    <type id="highway.bus_guideway" priority="1" numLanes="1" speed="27.78" allow="bus" oneway="1"/>
    <type id="highway.cycleway" priority="1" numLanes="1" speed="8.33" allow="bicycle" oneway="0" width="1.00"/>
    <type id="highway.footway" priority="1" numLanes="1" speed="2.78" allow="pedestrian" oneway="1" width="2.00"/>
    <type id="highway.ford" priority="1" numLanes="1" speed="2.78" allow="army" oneway="0"/>
    <type id="highway.living_street" priority="2" numLanes="1" speed="2.78" disallow="tram rail_urban rail rail_electric rail_fast ship" oneway="0"/>
    <type id="highway.motorway" priority="14" numLanes="2" speed="39.44" allow="private emergency authority army vip passenger hov taxi bus coach delivery truck trailer motorcycle evehicle custom1 custom2" oneway="1"/>
    <type id="highway.motorway_link" priority="9" numLanes="1" speed="22.22" allow="private emergency authority army vip passenger hov taxi bus coach delivery truck trailer motorcycle evehicle custom1 custom2" oneway="1"/>
    <type id="highway.path" priority="1" numLanes="1" speed="2.78" allow="pedestrian bicycle" oneway="1" width="2.00"/>
    <type id="highway.pedestrian" priority="1" numLanes="1" speed="2.78" allow="pedestrian" oneway="1" width="2.00"/>
    <type id="highway.primary" priority="12" numLanes="2" speed="27.78" disallow="tram rail_urban rail rail_electric rail_fast ship" oneway="0"/>
    <type id="highway.primary_link" priority="7" numLanes="1" speed="22.22" disallow="tram rail_urban rail rail_electric rail_fast ship" oneway="0"/>
    <type id="highway.raceway" priority="15" numLanes="2" speed="83.33" allow="vip" oneway="0"/>
    <type id="highway.residential" priority="3" numLanes="1" speed="13.89" disallow="tram rail_urban rail rail_electric rail_fast ship" oneway="0"/>
    <type id="highway.secondary" priority="11" numLanes="1" speed="27.78" disallow="tram rail_urban rail rail_electric rail_fast ship" oneway="0"/>
    <type id="highway.secondary_link" priority="6" numLanes="1" speed="22.22" disallow="tram rail_urban rail rail_electric rail_fast ship" oneway="0"/>
    <type id="highway.service" priority="1" numLanes="1" speed="5.56" allow="pedestrian delivery bicycle" oneway="0"/>
    <type id="highway.stairs" priority="1" numLanes="1" speed="1.39" allow="pedestrian" oneway="1" width="2.00"/>
    <type id="highway.step" priority="1" numLanes="1" speed="1.39" allow="pedestrian" oneway="1" width="2.00"/>
    <type id="highway.steps" priority="1" numLanes="1" speed="1.39" allow="pedestrian" oneway="1" width="2.00"/>
    <type id="highway.tertiary" priority="10" numLanes="1" speed="22.22" disallow="tram rail_urban rail rail_electric rail_fast ship" oneway="0"/>
    <type id="highway.tertiary_link" priority="5" numLanes="1" speed="22.22" disallow="tram rail_urban rail rail_electric rail_fast ship" oneway="0"/>
    <type id="highway.track" priority="1" numLanes="1" speed="5.56" allow="pedestrian motorcycle moped bicycle" oneway="0"/>
    <type id="highway.trunk" priority="13" numLanes="2" speed="27.78" disallow="pedestrian bicycle tram rail_urban rail rail_electric rail_fast ship" oneway="0"/>
    <type id="highway.trunk_link" priority="8" numLanes="1" speed="22.22" disallow="pedestrian bicycle tram rail_urban rail rail_electric rail_fast ship" oneway="0"/>
    <type id="highway.unclassified" priority="4" numLanes="1" speed="13.89" disallow="tram rail_urban rail rail_electric rail_fast ship" oneway="0"/>
    <type id="highway.unsurfaced" priority="1" numLanes="1" speed="8.33" disallow="tram rail_urban rail rail_electric rail_fast ship" oneway="0"/>
    <type id="railway.highspeed" priority="21" numLanes="1" speed="69.44" allow="rail_fast" oneway="1"/>
    <type id="railway.light_rail" priority="19" numLanes="1" speed="27.78" allow="rail_urban" oneway="1"/>
    <type id="railway.preserved" priority="16" numLanes="1" speed="27.78" allow="rail" oneway="1"/>
    <type id="railway.rail" priority="20" numLanes="1" speed="44.44" allow="rail" oneway="1"/>
    <type id="railway.subway" priority="18" numLanes="1" speed="27.78" allow="rail_urban" oneway="1"/>
    <type id="railway.tram" priority="17" numLanes="1" speed="13.89" allow="tram" oneway="1"/>

    <edge id=":1404154789_0" function="internal">
        <lane id=":1404154789_0_0" index="0" disallow="tram rail_urban rail rail_electric rail_fast ship" speed="22.22" length="8.41" shape="165.17,613.43 162.65,613.22 160.86,613.84 159.06,614.45 156.56,614.20"/>
        <lane id=":1404154789_0_1" index="1" disallow="tram rail_urban rail rail_electric rail_fast ship" speed="22.22" length="8.41" shape="165.17,613.43 157.51,611.14"/>
    </edge>
    <edge id=":1404154789_2" function="internal">
        <lane id=":1404154789_2_0" index="0" disallow="tram rail_urban rail rail_electric rail_fast ship" speed="22.22" length="7.93" shape="158.45,608.08 166.05,610.35"/>
    </edge>
    <edge id=":1721865354_0" function="internal">
        <lane id=":1721865354_0_0" index="0" disallow="tram rail_urban rail rail_electric rail_fast ship" speed="13.89" length="19.07" shape="729.32,208.34 733.06,204.40 735.36,201.42 736.95,198.02 738.56,192.85"/>
        <lane id=":1721865354_0_1" index="1" disallow="tram rail_urban rail rail_electric rail_fast ship" speed="13.89" length="19.07" shape="732.23,209.93 736.08,205.83 738.40,202.69 739.99,199.12 741.64,193.74"/>
        <lane id=":1721865354_0_2" index="2" disallow="tram rail_urban rail rail_electric rail_fast ship" speed="13.89" length="19.07" shape="735.14,211.53 739.11,207.25 741.45,203.95 743.04,200.22 744.71,194.62"/>
    </edge>
    <edge id=":1721865354_3" function="internal">
        <lane id=":1721865354_3_0" index="0" disallow="tram rail_urban rail rail_electric rail_fast ship" speed="10.51" length="18.91" shape="743.39,212.19 741.05,209.60 739.98,205.67 740.17,200.38 741.64,193.74"/>
        <lane id=":1721865354_3_1" index="1" disallow="tram rail_urban rail rail_electric rail_fast ship" speed="10.12" length="18.91" shape="743.39,212.19 742.30,210.33 742.15,206.79 742.96,201.55 744.71,194.62"/>
    </edge>
    <edge id=":1837303870_0" function="internal">
        <lane id=":1837303870_0_0" index="0" disallow="tram rail_urban rail rail_electric rail_fast ship" speed="27.78" length="8.52" shape="1049.98,590.70 1049.69,593.19 1050.27,594.98 1050.85,596.77 1050.58,599.26"/>
        <lane id=":1837303870_0_1" index="1" disallow="tram rail_urban rail rail_electric rail_fast ship" speed="27.78" length="8.52" shape="1046.93,589.71 1046.65,592.20 1047.22,594.00 1047.80,595.79 1047.53,598.29"/>
        <lane id=":1837303870_0_2" index="2" disallow="tram rail_urban rail rail_electric rail_fast ship" speed="27.78" length="8.52" shape="1046.93,589.71 1044.48,597.32"/>
    </edge>
    <edge id=":1837303870_3" function="internal">
        <lane id=":1837303870_3_0" index="0" disallow="tram rail_urban rail rail_electric rail_fast ship" speed="27.78" length="8.02" shape="1038.38,595.37 1040.85,587.72"/>
        <lane id=":1837303870_3_1" index="1" disallow="tram rail_urban rail rail_electric rail_fast ship" speed="27.78" length="8.02" shape="1041.43,596.34 1043.89,588.72"/>
    </edge>
    <edge id=":1837304446_0" function="internal">
        <lane id=":1837304446_0_0" index="0" disallow="tram rail_urban rail rail_electric rail_fast ship" speed="13.89" length="8.02" shape="984.96,633.02 977.32,630.55"/>
    </edge>
    <edge id=":1837304446_1" function="internal">
        <lane id=":1837304446_1_0" index="0" disallow="tram rail_urban rail rail_electric rail_fast ship" speed="13.89" length="8.38" shape="978.33,627.52 980.81,627.81 982.60,627.23 984.39,626.65 986.88,626.91"/>
        <lane id=":1837304446_1_1" index="1" disallow="tram rail_urban rail rail_electric rail_fast ship" speed="13.89" length="8.38" shape="978.33,627.52 985.92,629.97"/>
    </edge>
    <edge id=":2003729085_0" function="internal">
        <lane id=":2003729085_0_0" index="0" disallow="tram rail_urban rail rail_electric rail_fast ship" speed="13.89" length="0.29" shape="710.90,685.37 710.80,685.69"/>
        <lane id=":2003729085_0_1" index="1" disallow="tram rail_urban rail rail_electric rail_fast ship" speed="13.89" length="0.29" shape="707.84,684.42 707.75,684.70"/>
        <lane id=":2003729085_0_2" index="2" disallow="tram rail_urban rail rail_electric rail_fast ship" speed="13.89" length="0.29" shape="704.79,683.47 704.71,683.70"/>
    </edge>
    <edge id=":20964579_0" function="internal">
        <lane id=":20964579_0_0" index="0" disallow="tram rail_urban rail rail_electric rail_fast ship" speed="4.02" length="1.69" shape="5.95,971.12 6.07,971.55 6.29,971.89 6.60,972.16 6.99,972.35"/>
    </edge>
    <edge id=":20964581_0" function="internal">
        <lane id=":20964581_0_0" index="0" disallow="tram rail_urban rail rail_electric rail_fast ship" speed="9.95" length="22.39" shape="839.29,1230.67 837.03,1233.94 832.92,1235.49 826.95,1235.32 819.13,1233.42"/>
    </edge>
    <edge id=":20964581_1" function="internal">
        <lane id=":20964581_1_0" index="0" disallow="tram rail_urban rail rail_electric rail_fast ship" speed="6.51" length="8.99" shape="820.10,1230.36 822.52,1230.77 824.50,1230.30 826.03,1228.96 827.11,1226.74"/>
    </edge>
    <edge id=":20964581_2" function="internal">
        <lane id=":20964581_2_0" index="0" disallow="tram rail_urban rail rail_electric rail_fast ship" speed="7.33" length="11.68" shape="820.10,1230.36 823.86,1231.19 826.79,1231.02 828.89,1229.87 830.16,1227.72"/>
    </edge>
    <edge id=":20979738_0" function="internal">
        <lane id=":20979738_0_0" index="0" disallow="tram rail_urban rail rail_electric rail_fast ship" speed="13.89" length="0.52" shape="645.67,813.03 645.47,813.18 645.32,813.28 645.17,813.37 644.95,813.50"/>
        <lane id=":20979738_0_1" index="1" disallow="tram rail_urban rail rail_electric rail_fast ship" speed="13.89" length="0.52" shape="643.77,810.46 643.64,810.55 643.56,810.61 643.47,810.66 643.34,810.74"/>
        <lane id=":20979738_0_2" index="2" disallow="tram rail_urban rail rail_electric rail_fast ship" speed="13.89" length="0.52" shape="641.86,807.88 641.82,807.92 641.79,807.94 641.76,807.95 641.72,807.98"/>
    </edge>
    <edge id=":20979740_0" function="internal">
        <lane id=":20979740_0_0" index="0" disallow="tram rail_urban rail rail_electric rail_fast ship" speed="13.89" length="7.60" shape="597.20,824.07 595.06,824.45 593.66,825.05 592.26,825.68 590.12,826.14"/>
        <lane id=":20979740_0_1" index="1" disallow="tram rail_urban rail rail_electric rail_fast ship" speed="13.89" length="7.60" shape="597.21,820.86 594.96,821.25 593.48,821.85 592.00,822.48 589.76,822.96"/>
    </edge>
    <edge id=":20979742_0" function="internal">
        <lane id=":20979742_0_0" index="0" disallow="tram rail_urban rail rail_electric rail_fast ship" speed="13.89" length="4.46" shape="549.62,844.17 548.86,845.14 548.43,845.87 548.11,846.67 547.68,847.83"/>
        <lane id=":20979742_0_1" index="1" disallow="tram rail_urban rail rail_electric rail_fast ship" speed="13.89" length="4.46" shape="546.84,842.51 545.99,843.61 545.52,844.44 545.18,845.35 544.70,846.67"/>
    </edge>
    <edge id=":20979742_2" function="internal">
        <lane id=":20979742_2_0" index="0" disallow="tram rail_urban rail rail_electric rail_fast ship" speed="4.85" length="3.98" shape="546.84,842.51 545.00,844.32 543.68,844.76"/>
    </edge>
    <edge id=":20979742_6" function="internal">
        <lane id=":20979742_6_0" index="0" disallow="tram rail_urban rail rail_electric rail_fast ship" speed="4.85" length="3.57" shape="543.68,844.76 542.87,843.82 542.57,841.51"/>
    </edge>
    <edge id=":20979742_3" function="internal">
        <lane id=":20979742_3_0" index="0" disallow="tram rail_urban rail rail_electric rail_fast ship" speed="12.65" length="3.79" shape="538.73,844.36 539.09,843.41 539.29,842.73 539.36,842.04 539.37,841.02"/>
        <lane id=":20979742_3_1" index="1" disallow="tram rail_urban rail rail_electric rail_fast ship" speed="13.86" length="3.79" shape="541.71,845.52 542.17,844.37 542.43,843.57 542.55,842.73 542.57,841.51"/>
    </edge>
    <edge id=":20979742_5" function="internal">
        <lane id=":20979742_5_0" index="0" disallow="tram rail_urban rail rail_electric rail_fast ship" speed="3.65" length="2.34" shape="541.71,845.52 542.89,844.69 543.79,844.60"/>
    </edge>
    <edge id=":20979742_7" function="internal">
        <lane id=":20979742_7_0" index="0" disallow="tram rail_urban rail rail_electric rail_fast ship" speed="3.65" length="2.34" shape="543.79,844.60 544.39,845.27 544.70,846.67"/>
    </edge>
    <edge id=":20979746_0" function="internal">
        <lane id=":20979746_0_0" index="0" disallow="tram rail_urban rail rail_electric rail_fast ship" speed="13.89" length="0.76" shape="479.46,716.19 479.42,715.86 479.40,715.63 479.40,715.40 479.43,715.06"/>
        <lane id=":20979746_0_1" index="1" disallow="tram rail_urban rail rail_electric rail_fast ship" speed="13.89" length="0.76" shape="482.63,715.72 482.61,715.61 482.61,715.53 482.61,715.45 482.62,715.34"/>
    </edge>
    <edge id=":20979752_0" function="internal">
        <lane id=":20979752_0_0" index="0" disallow="tram rail_urban rail rail_electric rail_fast ship" speed="13.89" length="13.30" shape="715.74,219.26 719.21,217.41 721.41,215.85 723.42,213.99 726.29,211.26"/>
        <lane id=":20979752_0_1" index="1" disallow="tram rail_urban rail rail_electric rail_fast ship" speed="13.89" length="13.30" shape="717.15,222.14 720.62,220.31 722.85,218.78 724.88,216.97 727.76,214.26"/>
        <lane id=":20979752_0_2" index="2" disallow="tram rail_urban rail rail_electric rail_fast ship" speed="13.89" length="13.30" shape="718.56,225.01 722.04,223.20 724.29,221.72 726.34,219.94 729.22,217.26"/>
    </edge>
    <edge id=":20979752_3" function="internal">
        <lane id=":20979752_3_0" index="0" disallow="tram rail_urban rail rail_electric rail_fast ship" speed="14.33" length="13.38" shape="718.56,225.01 722.36,223.37 725.37,222.62 728.20,222.58 731.47,223.04"/>
    </edge>
    <edge id=":20979753_0" function="internal">
        <lane id=":20979753_0_0" index="0" disallow="tram rail_urban rail rail_electric rail_fast ship" speed="13.89" length="23.11" shape="764.12,225.60 765.55,232.09 766.74,236.55 768.69,240.65 772.42,246.07"/>
        <lane id=":20979753_0_1" index="1" disallow="tram rail_urban rail rail_electric rail_fast ship" speed="13.89" length="23.11" shape="761.14,226.91 762.65,233.60 763.92,238.19 765.98,242.40 769.86,247.99"/>
        <lane id=":20979753_0_2" index="2" disallow="tram rail_urban rail rail_electric rail_fast ship" speed="13.89" length="23.11" shape="758.16,228.22 759.74,235.12 761.10,239.82 763.28,244.15 767.29,249.90"/>
    </edge>
    <edge id=":20979753_3" function="internal">
        <lane id=":20979753_3_0" index="0" disallow="tram rail_urban rail rail_electric rail_fast ship" speed="20.84" length="26.74" shape="750.36,229.65 754.15,231.98 758.77,235.67 764.06,240.92 769.86,247.99"/>
        <lane id=":20979753_3_1" index="1" disallow="tram rail_urban rail rail_electric rail_fast ship" speed="20.84" length="26.74" shape="750.36,229.65 753.76,232.30 757.53,236.68 761.94,242.60 767.29,249.90"/>
    </edge>
    <edge id=":20979755_0" function="internal">
        <lane id=":20979755_0_0" index="0" disallow="tram rail_urban rail rail_electric rail_fast ship" speed="7.61" length="9.81" shape="822.69,352.99 819.97,353.59 817.89,354.76 816.45,356.47 815.64,358.74"/>
    </edge>
    <edge id=":20979755_1" function="internal">
        <lane id=":20979755_1_0" index="0" disallow="tram rail_urban rail rail_electric rail_fast ship" speed="3.65" length="4.67" shape="822.69,352.99 821.41,352.32 820.93,351.57 821.24,350.73 822.34,349.80"/>
    </edge>
    <edge id=":20979755_2" function="internal">
        <lane id=":20979755_2_0" index="0" disallow="tram rail_urban rail rail_electric rail_fast ship" speed="6.40" length="9.04" shape="816.35,344.75 816.86,347.20 818.02,348.85 819.85,349.72 822.34,349.80"/>
    </edge>
    <edge id=":20979755_3" function="internal">
        <lane id=":20979755_3_0" index="0" disallow="tram rail_urban rail rail_electric rail_fast ship" speed="13.89" length="13.26" shape="816.35,344.75 816.61,348.92 816.65,351.79 816.37,354.64 815.64,358.74"/>
        <lane id=":20979755_3_1" index="1" disallow="tram rail_urban rail rail_electric rail_fast ship" speed="13.89" length="13.26" shape="813.16,344.95 813.40,348.88 813.45,351.58 813.19,354.27 812.50,358.13"/>
        <lane id=":20979755_3_2" index="2" disallow="tram rail_urban rail rail_electric rail_fast ship" speed="13.89" length="13.26" shape="809.96,345.14 810.19,348.83 810.24,351.37 810.00,353.90 809.36,357.53"/>
    </edge>
    <edge id=":20979758_0" function="internal">
        <lane id=":20979758_0_0" index="0" disallow="tram rail_urban rail rail_electric rail_fast ship" speed="6.51" length="8.98" shape="517.80,956.94 515.38,956.53 513.40,956.99 511.87,958.32 510.78,960.52"/>
    </edge>
    <edge id=":20979758_1" function="internal">
        <lane id=":20979758_1_0" index="0" disallow="tram rail_urban rail rail_electric rail_fast ship" speed="8.10" length="14.49" shape="517.80,956.94 512.92,955.02 509.67,952.90 508.05,950.57 508.06,948.04"/>
    </edge>
    <edge id=":20979758_2" function="internal">
        <lane id=":20979758_2_0" index="0" disallow="tram rail_urban rail rail_electric rail_fast ship" speed="13.89" length="11.08" shape="514.17,949.95 510.78,960.52"/>
        <lane id=":20979758_2_1" index="1" disallow="tram rail_urban rail rail_electric rail_fast ship" speed="13.89" length="11.08" shape="511.12,948.99 507.74,959.52"/>
    </edge>
    <edge id=":20979758_4" function="internal">
        <lane id=":20979758_4_0" index="0" disallow="tram rail_urban rail rail_electric rail_fast ship" speed="3.65" length="2.34" shape="511.12,948.99 509.99,949.90 509.11,950.04"/>
    </edge>
    <edge id=":20979758_8" function="internal">
        <lane id=":20979758_8_0" index="0" disallow="tram rail_urban rail rail_electric rail_fast ship" speed="3.65" length="2.34" shape="509.11,950.04 508.47,949.42 508.06,948.04"/>
    </edge>
    <edge id=":20979758_5" function="internal">
        <lane id=":20979758_5_0" index="0" disallow="tram rail_urban rail rail_electric rail_fast ship" speed="13.89" length="10.98" shape="501.66,957.52 505.01,947.08"/>
        <lane id=":20979758_5_1" index="1" disallow="tram rail_urban rail rail_electric rail_fast ship" speed="13.89" length="10.98" shape="504.70,958.52 508.06,948.04"/>
    </edge>
    <edge id=":20979758_7" function="internal">
        <lane id=":20979758_7_0" index="0" disallow="tram rail_urban rail rail_electric rail_fast ship" speed="3.65" length="2.34" shape="504.70,958.52 505.83,957.63 506.72,957.50"/>
    </edge>
    <edge id=":20979758_9" function="internal">
        <lane id=":20979758_9_0" index="0" disallow="tram rail_urban rail rail_electric rail_fast ship" speed="3.65" length="2.34" shape="506.72,957.50 507.35,958.13 507.74,959.52"/>
    </edge>
    <edge id=":20979762_0" function="internal">
        <lane id=":20979762_0_0" index="0" disallow="tram rail_urban rail rail_electric rail_fast ship" speed="13.89" length="29.70" shape="767.00,188.75 764.05,197.00 762.77,202.91 762.65,209.01 763.17,217.79"/>
    </edge>
    <edge id=":20979762_1" function="internal">
        <lane id=":20979762_1_0" index="0" disallow="tram rail_urban rail rail_electric rail_fast ship" speed="13.89" length="30.20" shape="764.01,187.60 760.99,195.98 759.62,201.99 759.43,208.18 759.92,217.10"/>
    </edge>
    <edge id=":20979762_2" function="internal">
        <lane id=":20979762_2_0" index="0" disallow="tram rail_urban rail rail_electric rail_fast ship" speed="13.89" length="30.70" shape="761.03,186.45 757.94,194.93 756.49,201.07 756.22,207.39 756.68,216.42"/>
    </edge>
    <edge id=":20979762_3" function="internal">
        <lane id=":20979762_3_0" index="0" disallow="tram rail_urban rail rail_electric rail_fast ship" speed="13.14" length="30.25" shape="761.03,186.45 756.29,198.30 752.51,206.74 749.70,211.78 747.85,213.42"/>
    </edge>
    <edge id=":20979763_0" function="internal">
        <lane id=":20979763_0_0" index="0" disallow="tram rail_urban rail rail_electric rail_fast ship" speed="11.11" length="20.80" shape="465.59,1118.58 445.62,1112.76"/>
    </edge>
    <edge id=":20979763_1" function="internal">
        <lane id=":20979763_1_0" index="0" disallow="tram rail_urban rail rail_electric rail_fast ship" speed="9.15" length="19.27" shape="465.59,1118.58 460.71,1116.41 457.74,1113.23 456.67,1109.05 457.51,1103.85"/>
    </edge>
    <edge id=":20979763_2" function="internal">
        <lane id=":20979763_2_0" index="0" disallow="tram rail_urban rail rail_electric rail_fast ship" speed="3.65" length="2.65" shape="465.59,1118.58 464.66,1117.48 464.49,1116.60 464.71,1116.37"/>
    </edge>
    <edge id=":20979763_8" function="internal">
        <lane id=":20979763_8_0" index="0" disallow="tram rail_urban rail rail_electric rail_fast ship" speed="3.65" length="2.02" shape="464.71,1116.37 465.10,1115.94 466.47,1115.50"/>
    </edge>
    <edge id=":20979763_3" function="internal">
        <lane id=":20979763_3_0" index="0" disallow="tram rail_urban rail rail_electric rail_fast ship" speed="7.19" length="11.48" shape="463.61,1105.77 462.83,1109.44 463.04,1112.29 464.26,1114.31 466.47,1115.50"/>
    </edge>
    <edge id=":20979763_4" function="internal">
        <lane id=":20979763_4_0" index="0" disallow="tram rail_urban rail rail_electric rail_fast ship" speed="3.65" length="4.67" shape="460.56,1104.81 459.44,1105.72 458.55,1105.86 457.91,1105.24 457.51,1103.85"/>
    </edge>
    <edge id=":20979763_5" function="internal">
        <lane id=":20979763_5_0" index="0" disallow="tram rail_urban rail rail_electric rail_fast ship" speed="6.54" length="9.03" shape="447.44,1106.63 449.88,1106.99 451.87,1106.49 453.39,1105.12 454.45,1102.89"/>
    </edge>
    <edge id=":20979763_6" function="internal">
        <lane id=":20979763_6_0" index="0" disallow="tram rail_urban rail rail_electric rail_fast ship" speed="11.11" length="21.04" shape="447.44,1106.63 453.78,1109.02 458.75,1111.62 462.82,1113.94 466.47,1115.50"/>
    </edge>
    <edge id=":20979763_7" function="internal">
        <lane id=":20979763_7_0" index="0" disallow="tram rail_urban rail rail_electric rail_fast ship" speed="3.65" length="2.34" shape="446.53,1109.70 447.45,1110.80 447.61,1111.68"/>
    </edge>
    <edge id=":20979763_9" function="internal">
        <lane id=":20979763_9_0" index="0" disallow="tram rail_urban rail rail_electric rail_fast ship" speed="3.65" length="2.34" shape="447.61,1111.68 447.00,1112.34 445.62,1112.76"/>
    </edge>
    <edge id=":2143247536_0" function="internal">
        <lane id=":2143247536_0_0" index="0" disallow="tram rail_urban rail rail_electric rail_fast ship" speed="27.78" length="0.29" shape="999.96,744.88 999.87,745.15"/>
        <lane id=":2143247536_0_1" index="1" disallow="tram rail_urban rail rail_electric rail_fast ship" speed="27.78" length="0.29" shape="996.92,743.88 996.82,744.16"/>
    </edge>
    <edge id=":2143247536_2" function="internal">
        <lane id=":2143247536_2_0" index="0" disallow="tram rail_urban rail rail_electric rail_fast ship" speed="27.78" length="0.31" shape="987.70,741.18 987.80,740.88"/>
        <lane id=":2143247536_2_1" index="1" disallow="tram rail_urban rail rail_electric rail_fast ship" speed="27.78" length="0.31" shape="990.74,742.17 990.84,741.88"/>
        <lane id=":2143247536_2_2" index="2" disallow="tram rail_urban rail rail_electric rail_fast ship" speed="27.78" length="0.31" shape="993.78,743.16 993.88,742.88"/>
    </edge>
    <edge id=":2143247537_0" function="internal">
        <lane id=":2143247537_0_0" index="0" disallow="tram rail_urban rail rail_electric rail_fast ship" speed="19.45" length="8.08" shape="973.04,827.13 970.37,834.80"/>
        <lane id=":2143247537_0_1" index="1" disallow="tram rail_urban rail rail_electric rail_fast ship" speed="19.45" length="8.08" shape="970.00,826.13 967.37,833.71"/>
    </edge>
    <edge id=":2143247537_2" function="internal">
        <lane id=":2143247537_2_0" index="0" disallow="tram rail_urban rail rail_electric rail_fast ship" speed="19.45" length="8.40" shape="961.36,831.51 961.71,829.10 961.17,827.33 960.61,825.56 960.88,823.13"/>
        <lane id=":2143247537_2_1" index="1" disallow="tram rail_urban rail rail_electric rail_fast ship" speed="19.45" length="8.40" shape="964.36,832.61 964.72,830.17 964.19,828.38 963.64,826.59 963.92,824.13"/>
        <lane id=":2143247537_2_2" index="2" disallow="tram rail_urban rail rail_electric rail_fast ship" speed="19.45" length="8.40" shape="964.36,832.61 966.96,825.13"/>
    </edge>
    <edge id=":21436517_0" function="internal">
        <lane id=":21436517_0_0" index="0" disallow="tram rail_urban rail rail_electric rail_fast ship" speed="11.11" length="17.14" shape="768.24,137.97 751.91,132.79"/>
    </edge>
    <edge id=":21436517_1" function="internal">
        <lane id=":21436517_1_0" index="0" disallow="tram rail_urban rail rail_electric rail_fast ship" speed="3.65" length="2.56" shape="768.24,137.97 767.32,136.86 767.16,135.98 767.31,135.82"/>
    </edge>
    <edge id=":21436517_6" function="internal">
        <lane id=":21436517_6_0" index="0" disallow="tram rail_urban rail rail_electric rail_fast ship" speed="3.65" length="2.12" shape="767.31,135.82 767.77,135.33 769.15,134.90"/>
    </edge>
    <edge id=":21436517_2" function="internal">
        <lane id=":21436517_2_0" index="0" disallow="tram rail_urban rail rail_electric rail_fast ship" speed="11.11" length="17.31" shape="753.96,126.73 759.10,128.98 762.82,131.32 765.90,133.42 769.15,134.90"/>
    </edge>
    <edge id=":21436517_3" function="internal">
        <lane id=":21436517_3_0" index="0" disallow="tram rail_urban rail rail_electric rail_fast ship" speed="3.65" length="2.56" shape="752.93,129.76 753.81,130.91 753.93,131.79 753.78,131.95"/>
    </edge>
    <edge id=":21436517_7" function="internal">
        <lane id=":21436517_7_0" index="0" disallow="tram rail_urban rail rail_electric rail_fast ship" speed="3.65" length="2.11" shape="753.78,131.95 753.30,132.42 751.91,132.79"/>
    </edge>
    <edge id=":21436517_4" function="internal">
        <lane id=":21436517_4_0" index="0" disallow="tram rail_urban rail rail_electric rail_fast ship" speed="6.56" length="8.85" shape="754.51,142.78 754.84,140.39 754.34,138.43 753.02,136.91 750.88,135.82"/>
    </edge>
    <edge id=":21436517_5" function="internal">
        <lane id=":21436517_5_0" index="0" disallow="tram rail_urban rail rail_electric rail_fast ship" speed="8.06" length="13.88" shape="757.57,143.71 758.09,139.95 757.32,136.88 755.26,134.49 751.91,132.79"/>
    </edge>
    <edge id=":21436518_0" function="internal">
        <lane id=":21436518_0_0" index="0" disallow="tram rail_urban rail rail_electric rail_fast ship" speed="6.28" length="8.48" shape="787.91,147.70 785.58,147.32 783.71,147.76 782.30,149.03 781.36,151.13"/>
    </edge>
    <edge id=":21436518_1" function="internal">
        <lane id=":21436518_1_0" index="0" disallow="tram rail_urban rail rail_electric rail_fast ship" speed="11.11" length="17.51" shape="787.91,147.70 782.67,145.53 778.90,143.17 775.80,141.00 772.58,139.40"/>
    </edge>
    <edge id=":21436518_2" function="internal">
        <lane id=":21436518_2_0" index="0" disallow="tram rail_urban rail rail_electric rail_fast ship" speed="3.65" length="2.34" shape="788.86,144.64 787.96,143.52 787.81,142.64"/>
    </edge>
    <edge id=":21436518_8" function="internal">
        <lane id=":21436518_8_0" index="0" disallow="tram rail_urban rail rail_electric rail_fast ship" speed="3.65" length="2.34" shape="787.81,142.64 788.43,141.99 789.81,141.59"/>
    </edge>
    <edge id=":21436518_3" function="internal">
        <lane id=":21436518_3_0" index="0" disallow="tram rail_urban rail rail_electric rail_fast ship" speed="11.11" length="17.21" shape="773.59,136.36 777.11,137.01 780.85,137.08 785.26,137.33 790.76,138.53"/>
        <lane id=":21436518_3_1" index="1" disallow="tram rail_urban rail rail_electric rail_fast ship" speed="11.11" length="17.21" shape="773.59,136.36 789.81,141.59"/>