<?xml version="1.0" encoding="UTF-8"?>

<!-- generated on Wed  2 Dec 01:00:21 2020 by Eclipse SUMO netedit Version 1.7.0
<configuration xmlns:xsi="http://www.w3.org/2001/XMLSchema-instance" xsi:noNamespaceSchemaLocation="http://sumo.dlr.de/xsd/netconvertConfiguration.xsd">

    <input>
        <sumo-net-file value="/Users/julian/Downloads/net.net.xml"/>
    </input>

    <output>
        <output-file value="/Users/julian/src/SMARTS/scenarios/minicity/map.net.xml"/>
    </output>

    <processing>
        <geometry.min-radius.fix.railways value="false"/>
        <geometry.max-grade.fix value="false"/>
        <offset.disable-normalization value="true"/>
        <lefthand value="false"/>
    </processing>

    <junctions>
        <no-turnarounds value="true"/>
        <junctions.corner-detail value="5"/>
        <junctions.limit-turn-speed value="5.5"/>
        <rectangular-lane-cut value="false"/>
    </junctions>

    <pedestrian>
        <walkingareas value="false"/>
    </pedestrian>

    <report>
        <aggregate-warnings value="5"/>
    </report>

</configuration>
-->

<net version="1.6" junctionCornerDetail="5" limitTurnSpeed="5.50" xmlns:xsi="http://www.w3.org/2001/XMLSchema-instance" xsi:noNamespaceSchemaLocation="http://sumo.dlr.de/xsd/net_file.xsd">

    <location netOffset="-628745.98,-4834685.97" convBoundary="0.00,0.00,1699.48,2153.45" origBoundary="-79.403089,43.653893,-79.379859,43.673360" projParameter="+proj=utm +zone=17 +ellps=WGS84 +datum=WGS84 +units=m +no_defs"/>

    <type id="highway.bridleway" priority="1" numLanes="1" speed="2.78" oneway="1" width="2.00"/>
    <type id="highway.bus_guideway" priority="1" numLanes="1" speed="27.78" oneway="1"/>
    <type id="highway.cycleway" priority="1" numLanes="1" speed="8.33" oneway="0" width="1.00"/>
    <type id="highway.footway" priority="1" numLanes="1" speed="2.78" oneway="1" width="2.00"/>
    <type id="highway.ford" priority="1" numLanes="1" speed="2.78" oneway="0"/>
    <type id="highway.living_street" priority="2" numLanes="1" speed="2.78" oneway="0"/>
    <type id="highway.motorway" priority="14" numLanes="2" speed="39.44" oneway="1"/>
    <type id="highway.motorway_link" priority="9" numLanes="1" speed="22.22" oneway="1"/>
    <type id="highway.path" priority="1" numLanes="1" speed="2.78" oneway="1" width="2.00"/>
    <type id="highway.pedestrian" priority="1" numLanes="1" speed="2.78" oneway="1" width="2.00"/>
    <type id="highway.primary" priority="12" numLanes="2" speed="27.78" oneway="0"/>
    <type id="highway.primary_link" priority="7" numLanes="1" speed="22.22" oneway="0"/>
    <type id="highway.raceway" priority="15" numLanes="2" speed="83.33" oneway="0"/>
    <type id="highway.residential" priority="3" numLanes="1" speed="13.89" oneway="0"/>
    <type id="highway.secondary" priority="11" numLanes="1" speed="27.78" oneway="0"/>
    <type id="highway.secondary_link" priority="6" numLanes="1" speed="22.22" oneway="0"/>
    <type id="highway.service" priority="1" numLanes="1" speed="5.56" oneway="0"/>
    <type id="highway.stairs" priority="1" numLanes="1" speed="1.39" oneway="1" width="2.00"/>
    <type id="highway.step" priority="1" numLanes="1" speed="1.39" oneway="1" width="2.00"/>
    <type id="highway.steps" priority="1" numLanes="1" speed="1.39" oneway="1" width="2.00"/>
    <type id="highway.tertiary" priority="10" numLanes="1" speed="22.22" oneway="0"/>
    <type id="highway.tertiary_link" priority="5" numLanes="1" speed="22.22" oneway="0"/>
    <type id="highway.track" priority="1" numLanes="1" speed="5.56" oneway="0"/>
    <type id="highway.trunk" priority="13" numLanes="2" speed="27.78" oneway="0"/>
    <type id="highway.trunk_link" priority="8" numLanes="1" speed="22.22" oneway="0"/>
    <type id="highway.unclassified" priority="4" numLanes="1" speed="13.89" oneway="0"/>
    <type id="highway.unsurfaced" priority="1" numLanes="1" speed="8.33" oneway="0"/>
    <type id="railway.highspeed" priority="21" numLanes="1" speed="69.44" oneway="1"/>
    <type id="railway.light_rail" priority="19" numLanes="1" speed="27.78" oneway="1"/>
    <type id="railway.preserved" priority="16" numLanes="1" speed="27.78" oneway="1"/>
    <type id="railway.rail" priority="20" numLanes="1" speed="44.44" oneway="1"/>
    <type id="railway.subway" priority="18" numLanes="1" speed="27.78" oneway="1"/>
    <type id="railway.tram" priority="17" numLanes="1" speed="13.89" oneway="1"/>

    <edge id=":1005007861_0" function="internal">
        <lane id=":1005007861_0_0" index="0" speed="5.28" length="5.30" shape="260.00,502.58 258.48,502.39 257.26,502.67 256.35,503.40 255.74,504.60"/>
    </edge>
    <edge id=":1005007861_1" function="internal">
        <lane id=":1005007861_1_0" index="0" speed="3.65" length="4.67" shape="260.00,502.58 259.03,501.51 258.84,500.64 259.42,499.96 260.78,499.47"/>
    </edge>
    <edge id=":1005007861_2" function="internal">
        <lane id=":1005007861_2_0" index="0" speed="4.96" length="5.09" shape="258.66,495.63 258.41,497.02 258.68,498.12 259.47,498.94 260.78,499.47"/>
    </edge>
    <edge id=":1005007861_3" function="internal">
        <lane id=":1005007861_3_0" index="0" speed="11.11" length="9.45" shape="258.66,495.63 255.74,504.60"/>
        <lane id=":1005007861_3_1" index="1" speed="11.11" length="9.45" shape="255.62,494.62 252.69,503.63"/>
    </edge>
    <edge id=":1044196354_0" function="internal">
        <lane id=":1044196354_0_0" index="0" speed="5.08" length="4.96" shape="1241.86,1455.33 1241.57,1456.65 1241.77,1457.76 1242.45,1458.65 1243.61,1459.34"/>
    </edge>
    <edge id=":1044196354_1" function="internal">
        <lane id=":1044196354_1_0" index="0" speed="3.65" length="4.67" shape="1241.86,1455.33 1240.69,1456.17 1239.80,1456.27 1239.19,1455.62 1238.85,1454.22"/>
    </edge>
    <edge id=":1044196354_2" function="internal">
        <lane id=":1044196354_2_0" index="0" speed="5.10" length="4.97" shape="1234.91,1456.17 1236.24,1456.39 1237.34,1456.14 1238.21,1455.41 1238.85,1454.22"/>
    </edge>
    <edge id=":1044196354_3" function="internal">
        <lane id=":1044196354_3_0" index="0" speed="13.89" length="9.26" shape="1234.91,1456.17 1243.61,1459.34"/>
    </edge>
    <edge id=":1050430233_0" function="internal">
        <lane id=":1050430233_0_0" index="0" speed="5.95" length="6.67" shape="1248.77,1424.68 1247.49,1425.11 1246.55,1426.13 1245.96,1427.75 1245.71,1429.95"/>
    </edge>
    <edge id=":1050430233_1" function="internal">
        <lane id=":1050430233_1_0" index="0" speed="8.33" length="9.44" shape="1248.77,1424.68 1246.00,1424.68 1244.12,1424.25 1242.23,1423.75 1239.45,1423.50"/>
    </edge>
    <edge id=":1050430233_2" function="internal">
        <lane id=":1050430233_2_0" index="0" speed="5.01" length="5.04" shape="1242.51,1429.85 1242.36,1428.47 1241.80,1427.49 1240.83,1426.90 1239.46,1426.70"/>
    </edge>
    <edge id=":1050430233_3" function="internal">
        <lane id=":1050430233_3_0" index="0" speed="3.65" length="4.67" shape="1242.51,1429.85 1243.35,1428.68 1244.16,1428.30 1244.95,1428.73 1245.71,1429.95"/>
    </edge>
    <edge id=":1128901966_0" function="internal">
        <lane id=":1128901966_0_0" index="0" speed="5.11" length="5.06" shape="1227.41,925.40 1226.06,925.20 1224.96,925.49 1224.10,926.26 1223.48,927.52"/>
    </edge>
    <edge id=":1128901966_1" function="internal">
        <lane id=":1128901966_1_0" index="0" speed="11.11" length="9.37" shape="1227.41,925.40 1218.46,922.61"/>
    </edge>
    <edge id=":1128901966_2" function="internal">
        <lane id=":1128901966_2_0" index="0" speed="3.65" length="2.34" shape="1227.41,925.40 1226.49,924.29 1226.34,923.40"/>
    </edge>
    <edge id=":1128901966_9" function="internal">
        <lane id=":1128901966_9_0" index="0" speed="3.65" length="2.34" shape="1226.34,923.40 1226.95,922.75 1228.33,922.34"/>
    </edge>
    <edge id=":1128901966_3" function="internal">
        <lane id=":1128901966_3_0" index="0" speed="11.11" length="9.32" shape="1219.44,919.56 1228.33,922.34"/>
    </edge>
    <edge id=":1128901966_4" function="internal">
        <lane id=":1128901966_4_0" index="0" speed="6.85" length="5.10" shape="1219.44,919.56 1221.96,920.79 1223.47,922.52"/>
    </edge>
    <edge id=":1128901966_5" function="internal">
        <lane id=":1128901966_5_0" index="0" speed="3.65" length="2.34" shape="1219.44,919.56 1220.34,920.69 1220.47,921.57"/>
    </edge>
    <edge id=":1128901966_10" function="internal">
        <lane id=":1128901966_10_0" index="0" speed="6.85" length="5.10" shape="1223.47,922.52 1223.98,924.77 1223.48,927.52"/>
    </edge>
    <edge id=":1128901966_11" function="internal">
        <lane id=":1128901966_11_0" index="0" speed="3.65" length="2.34" shape="1220.47,921.57 1219.85,922.21 1218.46,922.61"/>
    </edge>
    <edge id=":1128901966_6" function="internal">
        <lane id=":1128901966_6_0" index="0" speed="5.03" length="5.01" shape="1220.45,926.52 1220.69,925.16 1220.44,924.06 1219.70,923.21 1218.46,922.61"/>
    </edge>
    <edge id=":1128901966_7" function="internal">
        <lane id=":1128901966_7_0" index="0" speed="6.91" length="10.12" shape="1220.45,926.52 1221.68,924.02 1223.41,922.49 1225.62,921.93 1228.33,922.34"/>
    </edge>
    <edge id=":1128901966_8" function="internal">
        <lane id=":1128901966_8_0" index="0" speed="3.65" length="4.67" shape="1220.45,926.52 1221.58,925.63 1222.47,925.50 1223.10,926.13 1223.48,927.52"/>
    </edge>
    <edge id=":1224706017_0" function="internal">
        <lane id=":1224706017_0_0" index="0" speed="13.89" length="6.03" shape="704.01,1707.35 702.31,1713.11"/>
        <lane id=":1224706017_0_1" index="1" speed="13.89" length="6.03" shape="700.95,1706.43 699.23,1712.23"/>
    </edge>
    <edge id=":1224706017_2" function="internal">
        <lane id=":1224706017_2_0" index="0" speed="3.65" length="2.34" shape="700.95,1706.43 699.83,1707.34 698.95,1707.49"/>
    </edge>
    <edge id=":1224706017_9" function="internal">
        <lane id=":1224706017_9_0" index="0" speed="3.65" length="2.34" shape="698.95,1707.49 698.30,1706.88 697.88,1705.50"/>
    </edge>
    <edge id=":1224706017_3" function="internal">
        <lane id=":1224706017_3_0" index="0" speed="4.99" length="4.99" shape="687.91,1705.67 689.25,1705.91 690.34,1705.66 691.18,1704.90 691.76,1703.64"/>
    </edge>
    <edge id=":1224706017_4" function="internal">
        <lane id=":1224706017_4_0" index="0" speed="7.96" length="13.56" shape="687.91,1705.67 693.14,1707.60 696.76,1709.34 698.79,1710.88 699.23,1712.23"/>
    </edge>
    <edge id=":1224706017_5" function="internal">
        <lane id=":1224706017_5_0" index="0" speed="13.89" length="6.14" shape="690.01,1709.57 691.76,1703.64"/>
        <lane id=":1224706017_5_1" index="1" speed="13.89" length="6.14" shape="693.08,1710.45 694.82,1704.57"/>
        <lane id=":1224706017_5_2" index="2" speed="13.89" length="6.14" shape="696.16,1711.34 697.88,1705.50"/>
    </edge>
    <edge id=":1224706017_8" function="internal">
        <lane id=":1224706017_8_0" index="0" speed="3.65" length="2.34" shape="696.16,1711.34 697.26,1710.41 698.14,1710.25"/>
    </edge>
    <edge id=":1224706017_10" function="internal">
        <lane id=":1224706017_10_0" index="0" speed="3.65" length="2.34" shape="698.14,1710.25 698.80,1710.85 699.23,1712.23"/>
    </edge>
    <edge id=":1224706018_0" function="internal">
        <lane id=":1224706018_0_0" index="0" speed="13.89" length="6.14" shape="699.63,1733.17 697.86,1739.03"/>
        <lane id=":1224706018_0_1" index="1" speed="13.89" length="6.14" shape="696.57,1732.24 694.79,1738.11"/>
        <lane id=":1224706018_0_2" index="2" speed="13.89" length="6.14" shape="693.51,1731.30 691.73,1737.20"/>
    </edge>
    <edge id=":1224706018_3" function="internal">
        <lane id=":1224706018_3_0" index="0" speed="7.80" length="2.63" shape="693.51,1731.30 692.29,1732.57 691.42,1732.67"/>
    </edge>
    <edge id=":1224706018_4" function="internal">
        <lane id=":1224706018_4_0" index="0" speed="3.65" length="2.34" shape="693.51,1731.30 692.39,1732.22 691.51,1732.37"/>
    </edge>
    <edge id=":1224706018_10" function="internal">
        <lane id=":1224706018_10_0" index="0" speed="7.80" length="11.30" shape="691.42,1732.67 689.71,1732.86 685.76,1732.18 680.45,1730.52"/>
    </edge>
    <edge id=":1224706018_11" function="internal">
        <lane id=":1224706018_11_0" index="0" speed="3.65" length="2.34" shape="691.51,1732.37 690.86,1731.75 690.45,1730.37"/>
    </edge>
    <edge id=":1224706018_5" function="internal">
        <lane id=":1224706018_5_0" index="0" speed="5.13" length="5.00" shape="682.53,1734.44 682.72,1733.12 682.44,1732.03 681.68,1731.16 680.45,1730.52"/>
    </edge>
    <edge id=":1224706018_6" function="internal">
        <lane id=":1224706018_6_0" index="0" speed="13.89" length="6.18" shape="682.53,1734.44 684.32,1728.51"/>
        <lane id=":1224706018_6_1" index="1" speed="13.89" length="6.18" shape="685.60,1735.36 687.39,1729.44"/>
        <lane id=":1224706018_6_2" index="2" speed="13.89" length="6.18" shape="688.66,1736.28 690.45,1730.37"/>
    </edge>
    <edge id=":1224706018_9" function="internal">
        <lane id=":1224706018_9_0" index="0" speed="3.65" length="2.34" shape="688.66,1736.28 689.77,1735.36 690.65,1735.20"/>
    </edge>
    <edge id=":1224706018_12" function="internal">
        <lane id=":1224706018_12_0" index="0" speed="3.65" length="2.34" shape="690.65,1735.20 691.31,1735.82 691.73,1737.20"/>
    </edge>
    <edge id=":1224821619_0" function="internal">
        <lane id=":1224821619_0_0" index="0" speed="3.65" length="4.67" shape="598.76,1656.91 597.68,1657.87 596.81,1658.06 596.13,1657.47 595.66,1656.11"/>
    </edge>
    <edge id=":1224821628_0" function="internal">
        <lane id=":1224821628_0_0" index="0" speed="5.84" length="5.92" shape="615.21,1614.40 613.91,1614.27 612.70,1614.68 611.57,1615.66 610.53,1617.18"/>
    </edge>
    <edge id=":1224821628_1" function="internal">
        <lane id=":1224821628_1_0" index="0" speed="11.11" length="9.52" shape="615.21,1614.40 606.12,1611.55"/>
    </edge>
    <edge id=":1224821628_2" function="internal">
        <lane id=":1224821628_2_0" index="0" speed="3.65" length="2.34" shape="615.21,1614.40 614.29,1613.28 614.15,1612.40"/>
    </edge>
    <edge id=":1224821628_9" function="internal">
        <lane id=":1224821628_9_0" index="0" speed="3.65" length="2.34" shape="614.15,1612.40 614.76,1611.75 616.15,1611.34"/>
    </edge>
    <edge id=":1224821628_3" function="internal">
        <lane id=":1224821628_3_0" index="0" speed="11.11" length="9.49" shape="607.09,1608.50 616.15,1611.34"/>
    </edge>
    <edge id=":1224821628_4" function="internal">
        <lane id=":1224821628_4_0" index="0" speed="6.73" length="5.20" shape="607.09,1608.50 609.94,1609.88 611.21,1611.47"/>
    </edge>
    <edge id=":1224821628_5" function="internal">
        <lane id=":1224821628_5_0" index="0" speed="3.65" length="2.34" shape="607.09,1608.50 607.99,1609.63 608.13,1610.51"/>
    </edge>
    <edge id=":1224821628_10" function="internal">
        <lane id=":1224821628_10_0" index="0" speed="6.73" length="6.02" shape="611.21,1611.47 611.47,1611.79 611.66,1614.22 610.53,1617.18"/>
    </edge>
    <edge id=":1224821628_11" function="internal">
        <lane id=":1224821628_11_0" index="0" speed="3.65" length="2.34" shape="608.13,1610.51 607.51,1611.15 606.12,1611.55"/>
    </edge>
    <edge id=":1224821628_6" function="internal">
        <lane id=":1224821628_6_0" index="0" speed="4.85" length="5.26" shape="607.73,1615.62 608.26,1614.23 608.17,1613.09 607.46,1612.20 606.12,1611.55"/>
    </edge>
    <edge id=":1224821628_7" function="internal">
        <lane id=":1224821628_7_0" index="0" speed="7.49" length="10.31" shape="607.73,1615.62 609.48,1613.16 611.47,1611.62 613.69,1611.02 616.15,1611.34"/>
    </edge>
    <edge id=":1224821628_8" function="internal">
        <lane id=":1224821628_8_0" index="0" speed="3.65" length="4.67" shape="607.73,1615.62 609.02,1614.96 609.91,1615.00 610.41,1615.74 610.53,1617.18"/>
    </edge>
    <edge id=":123347786_0" function="internal">
        <lane id=":123347786_0_0" index="0" speed="5.56" length="9.49" shape="719.18,661.98 716.27,671.01"/>
    </edge>
    <edge id=":123347786_1" function="internal">
        <lane id=":123347786_1_0" index="0" speed="5.56" length="5.16" shape="719.18,661.98 717.96,664.55 716.21,666.07"/>
    </edge>
    <edge id=":123347786_2" function="internal">
        <lane id=":123347786_2_0" index="0" speed="3.65" length="2.34" shape="719.18,661.98 718.06,662.89 717.18,663.03"/>
    </edge>
    <edge id=":123347786_9" function="internal">
        <lane id=":123347786_9_0" index="0" speed="5.56" length="5.16" shape="716.21,666.07 713.95,666.57 711.16,666.02"/>
    </edge>
    <edge id=":123347786_10" function="internal">
        <lane id=":123347786_10_0" index="0" speed="3.65" length="2.34" shape="717.18,663.03 716.53,662.41 716.13,661.03"/>
    </edge>
    <edge id=":123347786_3" function="internal">
        <lane id=":123347786_3_0" index="0" speed="5.01" length="5.04" shape="712.21,663.00 713.57,663.27 714.68,663.03 715.53,662.28 716.13,661.03"/>
    </edge>
    <edge id=":123347786_4" function="internal">
        <lane id=":123347786_4_0" index="0" speed="5.56" length="10.21" shape="712.21,663.00 714.72,664.29 716.24,666.05 716.75,668.29 716.27,671.01"/>
    </edge>
    <edge id=":123347786_5" function="internal">
        <lane id=":123347786_5_0" index="0" speed="3.65" length="4.67" shape="712.21,663.00 713.08,664.15 713.20,665.04 712.55,665.66 711.16,666.02"/>
    </edge>
    <edge id=":123347786_6" function="internal">
        <lane id=":123347786_6_0" index="0" speed="5.11" length="5.10" shape="713.23,670.00 713.47,668.66 713.20,667.55 712.43,666.67 711.16,666.02"/>
    </edge>
    <edge id=":123347786_7" function="internal">
        <lane id=":123347786_7_0" index="0" speed="5.56" length="9.43" shape="713.23,670.00 716.13,661.03"/>
    </edge>
    <edge id=":123347786_8" function="internal">
        <lane id=":123347786_8_0" index="0" speed="3.65" length="2.34" shape="713.23,670.00 714.37,669.12 715.25,668.99"/>
    </edge>
    <edge id=":123347786_11" function="internal">
        <lane id=":123347786_11_0" index="0" speed="3.65" length="2.34" shape="715.25,668.99 715.89,669.62 716.27,671.01"/>
    </edge>
    <edge id=":123347984_0" function="internal">
        <lane id=":123347984_0_0" index="0" speed="5.01" length="5.04" shape="548.14,620.79 546.78,620.53 545.67,620.77 544.82,621.52 544.23,622.78"/>
    </edge>
    <edge id=":123347984_1" function="internal">
        <lane id=":123347984_1_0" index="0" speed="6.92" length="10.21" shape="548.14,620.79 545.62,619.51 544.10,617.75 543.57,615.51 544.04,612.80"/>
    </edge>
    <edge id=":123347984_2" function="internal">
        <lane id=":123347984_2_0" index="0" speed="3.65" length="4.67" shape="548.14,620.79 547.27,619.64 547.15,618.76 547.79,618.13 549.19,617.77"/>
    </edge>
    <edge id=":123347984_3" function="internal">
        <lane id=":123347984_3_0" index="0" speed="5.11" length="5.11" shape="547.09,613.79 546.86,615.13 547.13,616.24 547.91,617.12 549.19,617.77"/>
    </edge>
    <edge id=":123347984_4" function="internal">
        <lane id=":123347984_4_0" index="0" speed="8.33" length="9.43" shape="547.09,613.79 544.23,622.78"/>
    </edge>
    <edge id=":123347984_5" function="internal">
        <lane id=":123347984_5_0" index="0" speed="3.65" length="2.34" shape="547.09,613.79 545.95,614.68 545.07,614.81"/>
    </edge>
    <edge id=":123347984_9" function="internal">
        <lane id=":123347984_9_0" index="0" speed="3.65" length="2.34" shape="545.07,614.81 544.43,614.18 544.04,612.80"/>
    </edge>
    <edge id=":123347984_6" function="internal">
        <lane id=":123347984_6_0" index="0" speed="8.33" length="9.48" shape="541.17,621.83 544.04,612.80"/>
    </edge>
    <edge id=":123347984_7" function="internal">
        <lane id=":123347984_7_0" index="0" speed="6.83" length="5.16" shape="541.17,621.83 542.39,619.26 544.13,617.73"/>
    </edge>
    <edge id=":123347984_8" function="internal">
        <lane id=":123347984_8_0" index="0" speed="3.65" length="2.34" shape="541.17,621.83 542.29,620.92 543.17,620.77"/>
    </edge>
    <edge id=":123347984_10" function="internal">
        <lane id=":123347984_10_0" index="0" speed="6.83" length="5.16" shape="544.13,617.73 546.40,617.23 549.19,617.77"/>
    </edge>
    <edge id=":123347984_11" function="internal">
        <lane id=":123347984_11_0" index="0" speed="3.65" length="2.34" shape="543.17,620.77 543.82,621.39 544.23,622.78"/>
    </edge>
    <edge id=":1258698109_0" function="internal">
        <lane id=":1258698109_0_0" index="0" speed="5.56" length="9.41" shape="760.45,994.93 758.52,992.91 757.21,991.49 755.77,990.24 753.45,988.72"/>
    </edge>
    <edge id=":1258698109_1" function="internal">
        <lane id=":1258698109_1_0" index="0" speed="5.56" length="5.38" shape="760.45,994.93 758.73,992.64 758.19,990.38 758.24,990.20"/>
    </edge>
    <edge id=":1258698109_2" function="internal">
        <lane id=":1258698109_2_0" index="0" speed="3.65" length="2.34" shape="760.45,994.93 760.17,993.52 760.45,992.67"/>
    </edge>
    <edge id=":1258698109_9" function="internal">
        <lane id=":1258698109_9_0" index="0" speed="5.56" length="5.00" shape="758.24,990.20 758.82,988.14 760.63,985.92"/>
    </edge>
    <edge id=":1258698109_10" function="internal">
        <lane id=":1258698109_10_0" index="0" speed="3.65" length="2.34" shape="760.45,992.67 761.30,992.38 762.71,992.66"/>
    </edge>
    <edge id=":1258698109_3" function="internal">
        <lane id=":1258698109_3_0" index="0" speed="4.99" length="5.05" shape="762.80,988.28 761.92,989.36 761.61,990.45 761.87,991.55 762.71,992.66"/>
    </edge>
    <edge id=":1258698109_4" function="internal">
        <lane id=":1258698109_4_0" index="0" speed="5.56" length="10.11" shape="762.80,988.28 760.72,989.68 758.47,990.22 756.05,989.90 753.45,988.72"/>
    </edge>
    <edge id=":1258698109_5" function="internal">
        <lane id=":1258698109_5_0" index="0" speed="3.65" length="4.67" shape="762.80,988.28 761.37,988.50 760.54,988.18 760.29,987.33 760.63,985.92"/>
    </edge>
    <edge id=":1258698109_6" function="internal">
        <lane id=":1258698109_6_0" index="0" speed="5.56" length="5.28" shape="755.77,986.38 757.06,986.94 758.31,987.06 759.50,986.72 760.63,985.92"/>
    </edge>
    <edge id=":1258698109_7" function="internal">
        <lane id=":1258698109_7_0" index="0" speed="5.56" length="9.42" shape="755.77,986.38 758.08,987.91 759.50,989.18 760.79,990.63 762.71,992.66"/>
    </edge>
    <edge id=":1258698109_8" function="internal">
        <lane id=":1258698109_8_0" index="0" speed="3.69" length="2.08" shape="755.77,986.38 756.07,987.83 755.88,988.40"/>
    </edge>
    <edge id=":1258698109_11" function="internal">
        <lane id=":1258698109_11_0" index="0" speed="3.69" length="2.73" shape="755.88,988.40 755.78,988.71 754.91,989.00 753.45,988.72"/>
    </edge>
    <edge id=":127275360_0" function="internal">
        <lane id=":127275360_0_0" index="0" speed="3.65" length="4.67" shape="562.58,1037.95 561.66,1036.84 561.51,1035.96 562.12,1035.31 563.50,1034.89"/>
    </edge>
    <edge id=":127289393_0" function="internal">
        <lane id=":127289393_0_0" index="0" speed="22.22" length="0.35" shape="594.60,1193.43 594.26,1193.33"/>
    </edge>
    <edge id=":127289393_1" function="internal">
        <lane id=":127289393_1_0" index="0" speed="22.22" length="0.12" shape="595.33,1190.31 595.45,1190.35"/>
    </edge>
    <edge id=":1298518839_0" function="internal">
        <lane id=":1298518839_0_0" index="0" speed="3.65" length="4.67" shape="303.35,1725.33 302.50,1724.17 302.40,1723.28 303.05,1722.67 304.45,1722.33"/>
    </edge>
    <edge id=":1298518840_0" function="internal">
        <lane id=":1298518840_0_0" index="0" speed="5.56" length="6.33" shape="333.34,1693.66 331.97,1693.54 330.78,1694.10 329.77,1695.32 328.94,1697.20"/>
    </edge>
    <edge id=":1298518840_1" function="internal">
        <lane id=":1298518840_1_0" index="0" speed="5.56" length="10.22" shape="333.34,1693.66 330.45,1692.86 328.38,1692.55 326.27,1692.57 323.26,1692.77"/>
    </edge>
    <edge id=":1298518840_2" function="internal">
        <lane id=":1298518840_2_0" index="0" speed="3.65" length="4.67" shape="333.34,1693.66 332.42,1692.54 332.27,1691.66 332.89,1691.01 334.27,1690.60"/>
    </edge>
    <edge id=":1298518840_3" function="internal">
        <lane id=":1298518840_3_0" index="0" speed="5.56" length="11.35" shape="323.06,1689.57 326.24,1689.40 328.74,1689.42 331.20,1689.78 334.27,1690.60"/>
    </edge>
    <edge id=":1298518840_4" function="internal">
        <lane id=":1298518840_4_0" index="0" speed="5.56" length="12.33" shape="323.06,1689.57 326.65,1689.85 328.82,1691.21 329.59,1693.66 328.94,1697.20"/>
    </edge>
    <edge id=":1298518840_5" function="internal">
        <lane id=":1298518840_5_0" index="0" speed="3.65" length="4.67" shape="323.06,1689.57 324.31,1690.30 324.76,1691.07 324.41,1691.89 323.26,1692.77"/>
    </edge>
    <edge id=":1298518840_6" function="internal">
        <lane id=":1298518840_6_0" index="0" speed="4.74" length="5.54" shape="325.91,1696.20 326.20,1694.60 325.85,1693.50 324.87,1692.89 323.26,1692.77"/>
    </edge>
    <edge id=":1298518840_7" function="internal">
        <lane id=":1298518840_7_0" index="0" speed="5.56" length="11.38" shape="325.91,1696.20 327.35,1693.07 329.22,1691.09 331.53,1690.27 334.27,1690.60"/>
    </edge>
    <edge id=":1298518840_8" function="internal">
        <lane id=":1298518840_8_0" index="0" speed="3.65" length="4.67" shape="325.91,1696.20 327.04,1695.31 327.93,1695.18 328.56,1695.81 328.94,1697.20"/>
    </edge>
    <edge id=":1298518842_0" function="internal">
        <lane id=":1298518842_0_0" index="0" speed="5.56" length="9.78" shape="321.17,1731.39 311.84,1728.42"/>
    </edge>
    <edge id=":1298518842_1" function="internal">
        <lane id=":1298518842_1_0" index="0" speed="5.56" length="10.41" shape="321.17,1731.39 318.53,1730.25 316.94,1728.54 316.40,1726.27 316.91,1723.44"/>
    </edge>
    <edge id=":1298518842_2" function="internal">
        <lane id=":1298518842_2_0" index="0" speed="3.65" length="4.67" shape="321.17,1731.39 320.22,1730.30 320.05,1729.43 320.65,1728.76 322.02,1728.31"/>
    </edge>
    <edge id=":1298518842_3" function="internal">
        <lane id=":1298518842_3_0" index="0" speed="4.99" length="5.06" shape="319.95,1724.44 319.70,1725.82 319.96,1726.92 320.74,1727.75 322.02,1728.31"/>
    </edge>
    <edge id=":1298518842_4" function="internal">
        <lane id=":1298518842_4_0" index="0" speed="5.56" length="10.36" shape="319.95,1724.44 318.67,1727.01 316.90,1728.53 314.62,1729.00 311.84,1728.42"/>
    </edge>
    <edge id=":1298518842_5" function="internal">
        <lane id=":1298518842_5_0" index="0" speed="3.65" length="4.67" shape="319.95,1724.44 318.81,1725.33 317.92,1725.46 317.29,1724.83 316.91,1723.44"/>
    </edge>
    <edge id=":1298518842_6" function="internal">
        <lane id=":1298518842_6_0" index="0" speed="5.03" length="5.09" shape="312.94,1725.42 314.30,1725.70 315.41,1725.46 316.28,1724.71 316.91,1723.44"/>
    </edge>
    <edge id=":1298518842_7" function="internal">
        <lane id=":1298518842_7_0" index="0" speed="5.56" length="9.53" shape="312.94,1725.42 322.02,1728.31"/>
    </edge>
    <edge id=":1298518842_8" function="internal">
        <lane id=":1298518842_8_0" index="0" speed="3.65" length="4.67" shape="312.94,1725.42 313.79,1726.58 313.90,1727.47 313.25,1728.08 311.84,1728.42"/>
    </edge>
    <edge id=":1298518844_0" function="internal">
        <lane id=":1298518844_0_0" index="0" speed="3.65" length="4.67" shape="318.50,1695.72 317.06,1695.89 316.24,1695.54 316.03,1694.67 316.42,1693.28"/>
    </edge>
    <edge id=":1298518847_0" function="internal">
        <lane id=":1298518847_0_0" index="0" speed="3.65" length="4.67" shape="327.89,1729.93 328.84,1731.02 329.01,1731.89 328.41,1732.56 327.05,1733.01"/>
    </edge>
    <edge id=":1298518850_0" function="internal">
        <lane id=":1298518850_0_0" index="0" speed="5.39" length="5.46" shape="390.51,1693.74 389.20,1693.53 388.04,1693.85 387.05,1694.70 386.23,1696.09"/>
    </edge>
    <edge id=":1298518850_1" function="internal">
        <lane id=":1298518850_1_0" index="0" speed="8.33" length="9.48" shape="390.51,1693.74 381.51,1690.79"/>
    </edge>
    <edge id=":1298518850_2" function="internal">
        <lane id=":1298518850_2_0" index="0" speed="3.65" length="2.34" shape="390.51,1693.74 389.64,1692.59 389.52,1691.71"/>
    </edge>
    <edge id=":1298518850_9" function="internal">
        <lane id=":1298518850_9_0" index="0" speed="3.65" length="2.34" shape="389.52,1691.71 390.16,1691.08 391.55,1690.71"/>
    </edge>
    <edge id=":1298518850_3" function="internal">
        <lane id=":1298518850_3_0" index="0" speed="8.33" length="9.56" shape="382.47,1687.73 391.55,1690.71"/>
    </edge>
    <edge id=":1298518850_4" function="internal">
        <lane id=":1298518850_4_0" index="0" speed="6.77" length="5.38" shape="382.47,1687.73 385.17,1689.03 386.70,1690.86"/>
    </edge>
    <edge id=":1298518850_5" function="internal">
        <lane id=":1298518850_5_0" index="0" speed="3.65" length="2.34" shape="382.47,1687.73 383.37,1688.86 383.51,1689.74"/>
    </edge>
    <edge id=":1298518850_10" function="internal">
        <lane id=":1298518850_10_0" index="0" speed="6.77" length="5.38" shape="386.70,1690.86 387.05,1693.21 386.23,1696.09"/>
    </edge>
    <edge id=":1298518850_11" function="internal">
        <lane id=":1298518850_11_0" index="0" speed="3.65" length="2.34" shape="383.51,1689.74 382.89,1690.38 381.51,1690.79"/>
    </edge>
    <edge id=":1298518850_6" function="internal">