<?xml version="1.0" encoding="UTF-8"?>

<!-- generated on Sat 16 Jan 2021 04:45:46 PM CST by Eclipse SUMO netedit Version 1.8.0
<configuration xmlns:xsi="http://www.w3.org/2001/XMLSchema-instance" xsi:noNamespaceSchemaLocation="http://sumo.dlr.de/xsd/netconvertConfiguration.xsd">

    <input>
        <sumo-net-file value="/home/ming/Projects/smarts/marl_benchmark/scenarios/double_merge/nocross/map.net.xml"/>
    </input>

    <output>
        <output-file value="/home/ming/Projects/smarts/marl_benchmark/scenarios/double_merge/nocross/map.net.xml"/>
    </output>

    <processing>
        <geometry.min-radius.fix.railways value="false"/>
        <geometry.max-grade.fix value="false"/>
        <offset.disable-normalization value="true"/>
        <lefthand value="false"/>
    </processing>

    <junctions>
        <no-turnarounds value="true"/>
        <junctions.corner-detail value="5"/>
        <junctions.limit-turn-speed value="5.5"/>
        <rectangular-lane-cut value="false"/>
    </junctions>

    <pedestrian>
        <walkingareas value="false"/>
    </pedestrian>

    <report>
        <aggregate-warnings value="5"/>
    </report>

</configuration>
-->

<net version="1.6" junctionCornerDetail="5" limitTurnSpeed="5.50" xmlns:xsi="http://www.w3.org/2001/XMLSchema-instance" xsi:noNamespaceSchemaLocation="http://sumo.dlr.de/xsd/net_file.xsd">

    <location netOffset="0.00,0.00" convBoundary="8.30,29.14,182.67,72.03" origBoundary="-10000000000.00,-10000000000.00,10000000000.00,10000000000.00" projParameter="!"/>

    <edge id=":gneJ3_0" function="internal">
        <lane id=":gneJ3_0_0" index="0" disallow="pedestrian tram rail_urban rail rail_electric rail_fast ship" speed="10.77" length="4.52" shape="40.32,45.97 41.52,46.54 42.40,46.80 43.34,46.86 44.68,46.85"/>
    </edge>
    <edge id=":gneJ3_1" function="internal">
        <lane id=":gneJ3_1_0" index="0" disallow="pedestrian tram rail_urban rail rail_electric rail_fast ship" speed="8.28" length="3.91" shape="41.04,51.17 42.01,50.55 42.74,50.21 43.53,50.08 44.68,50.05"/>
    </edge>
    <edge id=":gneJ7_0" function="internal">
        <lane id=":gneJ7_0_0" index="0" disallow="pedestrian tram rail_urban rail rail_electric rail_fast ship" speed="21.95" length="4.13" shape="143.18,46.76 147.32,46.74"/>
    </edge>
    <edge id=":gneJ7_1" function="internal">
        <lane id=":gneJ7_1_0" index="0" disallow="pedestrian tram rail_urban rail rail_electric rail_fast ship" speed="7.49" length="4.05" shape="143.19,49.96 144.38,49.99 145.20,50.15 145.93,50.55 146.87,51.28"/>
    </edge>

    <edge id="gneE17" from="gneJ21" to="gneJ3" priority="-1" spreadType="center">
        <lane id="gneE17_0" index="0" disallow="pedestrian tram rail_urban rail rail_electric rail_fast ship" speed="13.89" length="37.05" shape="10.42,72.03 41.04,51.17"/>
    </edge>
    <edge id="gneE22" from="gneJ26" to="gneJ3" priority="-1" spreadType="center">
        <lane id="gneE22_0" index="0" disallow="pedestrian tram rail_urban rail rail_electric rail_fast ship" speed="13.89" length="36.18" shape="8.30,29.14 40.32,45.97"/>
    </edge>
    <edge id="gneE23" from="gneJ7" to="gneJ27" priority="-1">
        <lane id="gneE23_0" index="0" speed="13.89" length="35.34" shape="147.32,46.74 182.66,46.61"/>
    </edge>
    <edge id="gneE24" from="gneJ7" to="gneJ28" priority="-1">
        <lane id="gneE24_0" index="0" speed="13.89" length="27.95" shape="146.87,51.28 168.39,69.11"/>
    </edge>
    <edge id="gneE5" from="gneJ3" to="gneJ7" priority="-1" spreadType="center" length="197.10">
        <lane id="gneE5_0" index="0" disallow="pedestrian tram rail_urban rail rail_electric rail_fast ship" speed="30.00" length="197.10" acceleration="1" shape="44.68,46.85 143.18,46.76"/>
        <lane id="gneE5_1" index="1" disallow="pedestrian tram rail_urban rail rail_electric rail_fast ship" speed="30.00" length="197.10" shape="44.68,50.05 143.19,49.96"/>
    </edge>

    <junction id="gneJ21" type="dead_end" x="10.42" y="72.03" incLanes="" intLanes="" shape="11.32,73.35 9.52,70.71"/>
    <junction id="gneJ26" type="dead_end" x="8.30" y="29.14" incLanes="" intLanes="" shape="7.56,30.56 9.04,27.72"/>
    <junction id="gneJ27" type="dead_end" x="182.67" y="48.21" incLanes="gneE23_0" intLanes="" shape="182.66,45.01 182.67,48.21"/>
    <junction id="gneJ28" type="dead_end" x="167.37" y="70.34" incLanes="gneE24_0" intLanes="" shape="169.41,67.88 167.37,70.34"/>
    <junction id="gneJ3" type="priority" x="45.04" y="48.45" incLanes="gneE22_0 gneE17_0" intLanes=":gneJ3_0_0 :gneJ3_1_0" shape="44.68,51.65 44.68,45.25 43.28,45.26 42.79,45.22 42.32,45.12 41.77,44.90 41.07,44.55 39.58,47.39 40.69,48.21 40.90,48.62 40.88,49.03 40.62,49.44 40.14,49.85 41.94,52.50 42.86,51.92 43.22,51.77 43.60,51.69 44.06,51.66">
        <request index="0" response="00" foes="00" cont="0"/>
        <request index="1" response="00" foes="00" cont="0"/>
    </junction>
    <junction id="gneJ7" type="priority" x="140.83" y="48.36" incLanes="gneE5_0 gneE5_1" intLanes=":gneJ7_0_0 :gneJ7_1_0" shape="145.84,52.51 147.89,50.05 146.91,49.10 146.72,48.77 146.72,48.53 146.92,48.39 147.33,48.34 147.31,45.14 143.18,45.16 143.19,51.56 144.26,51.60 144.64,51.70 144.99,51.87 145.37,52.13">
        <request index="0" response="00" foes="00" cont="0"/>
        <request index="1" response="00" foes="00" cont="0"/>
    </junction>

    <connection from="gneE17" to="gneE5" fromLane="0" toLane="1" via=":gneJ3_1_0" dir="s" state="M"/>
    <connection from="gneE22" to="gneE5" fromLane="0" toLane="0" via=":gneJ3_0_0" dir="s" state="M"/>
    <connection from="gneE5" to="gneE23" fromLane="0" toLane="0" via=":gneJ7_0_0" dir="s" state="M"/>
    <connection from="gneE5" to="gneE24" fromLane="1" toLane="0" via=":gneJ7_1_0" dir="L" state="M"/>

    <connection from=":gneJ3_0" to="gneE5" fromLane="0" toLane="0" dir="s" state="M"/>
    <connection from=":gneJ3_1" to="gneE5" fromLane="0" toLane="1" dir="s" state="M"/>
    <connection from=":gneJ7_0" to="gneE23" fromLane="0" toLane="0" dir="s" state="M"/>
    <connection from=":gneJ7_1" to="gneE24" fromLane="0" toLane="0" dir="L" state="M"/>

</net>
