<?xml version="1.0" encoding="UTF-8"?>

<!-- generated on 2021-05-19 09:31:21 by Eclipse SUMO netedit Version 1.9.2
<configuration xmlns:xsi="http://www.w3.org/2001/XMLSchema-instance" xsi:noNamespaceSchemaLocation="http://sumo.dlr.de/xsd/netconvertConfiguration.xsd">

    <input>
        <sumo-net-file value="C:\Users\j84181432\Documents\pool\behavior_race\70kmh\map.net.xml"/>
    </input>

    <output>
        <output-file value="C:\Users\j84181432\Documents\pool\behavior_race\70kmh\map.net.xml"/>
    </output>

    <processing>
        <geometry.min-radius.fix.railways value="false"/>
        <geometry.max-grade.fix value="false"/>
        <offset.disable-normalization value="true"/>
        <lefthand value="false"/>
    </processing>

    <junctions>
        <no-turnarounds value="true"/>
        <junctions.corner-detail value="5"/>
        <junctions.limit-turn-speed value="-1"/>
        <rectangular-lane-cut value="false"/>
    </junctions>

    <pedestrian>
        <walkingareas value="false"/>
    </pedestrian>

    <report>
        <aggregate-warnings value="5"/>
    </report>

</configuration>
-->

<net version="1.9" junctionCornerDetail="5" xmlns:xsi="http://www.w3.org/2001/XMLSchema-instance" xsi:noNamespaceSchemaLocation="http://sumo.dlr.de/xsd/net_file.xsd">

    <location netOffset="0.00,0.00" convBoundary="-142.32,96.05,275.31,96.33" origBoundary="-10000000000.00,-10000000000.00,10000000000.00,10000000000.00" projParameter="!"/>

    <edge id=":gneJ10_0" function="internal">
        <lane id=":gneJ10_0_0" index="0" speed="19.44" length="0.30" shape="-68.34,126.45 -68.59,126.45"/>
        <lane id=":gneJ10_0_1" index="1" speed="19.44" length="0.30" shape="-68.34,123.25 -68.60,123.25"/>
        <lane id=":gneJ10_0_2" index="2" speed="19.44" length="0.30" shape="-68.34,120.05 -68.61,120.05"/>
        <lane id=":gneJ10_0_3" index="3" speed="19.44" length="0.30" shape="-68.34,116.85 -68.62,116.85"/>
        <lane id=":gneJ10_0_4" index="4" speed="19.44" length="0.30" shape="-68.34,113.65 -68.63,113.65"/>
        <lane id=":gneJ10_0_5" index="5" speed="19.44" length="0.30" shape="-68.34,110.45 -68.65,110.45"/>
        <lane id=":gneJ10_0_6" index="6" speed="19.44" length="0.30" shape="-68.34,107.25 -68.66,107.25"/>
        <lane id=":gneJ10_0_7" index="7" speed="19.44" length="0.30" shape="-68.34,104.05 -68.67,104.05"/>
        <lane id=":gneJ10_0_8" index="8" speed="19.44" length="0.30" shape="-68.34,100.85 -68.68,100.85"/>
        <lane id=":gneJ10_0_9" index="9" speed="19.44" length="0.30" shape="-68.34,97.65 -68.70,97.65"/>
    </edge>

    <edge id="edge-east-EW" from="gneJ6" to="gneJ10" priority="-1">
        <lane id="edge-east-EW_0" index="0" speed="19.44" length="343.65" shape="275.31,126.50 -68.34,126.45"/>
        <lane id="edge-east-EW_1" index="1" speed="19.44" length="343.65" shape="275.31,123.30 -68.34,123.25"/>
        <lane id="edge-east-EW_2" index="2" speed="19.44" length="343.65" shape="275.31,120.10 -68.34,120.05"/>
        <lane id="edge-east-EW_3" index="3" speed="19.44" length="343.65" shape="275.31,116.90 -68.34,116.85"/>
        <lane id="edge-east-EW_4" index="4" speed="19.44" length="343.65" shape="275.31,113.70 -68.34,113.65"/>
        <lane id="edge-east-EW_5" index="5" speed="19.44" length="343.65" shape="275.31,110.50 -68.34,110.45"/>
        <lane id="edge-east-EW_6" index="6" speed="19.44" length="343.65" shape="275.31,107.30 -68.34,107.25"/>
        <lane id="edge-east-EW_7" index="7" speed="19.44" length="343.65" shape="275.31,104.10 -68.34,104.05"/>
        <lane id="edge-east-EW_8" index="8" speed="19.44" length="343.65" shape="275.31,100.90 -68.34,100.85"/>
        <lane id="edge-east-EW_9" index="9" speed="19.44" length="343.65" shape="275.31,97.70 -68.34,97.65"/>
    </edge>
    <edge id="edge-west-EW" from="gneJ10" to="gneJ16" priority="-1">
        <lane id="edge-west-EW_0" index="0" speed="19.44" length="73.62" shape="-68.59,126.45 -142.20,126.73"/>
        <lane id="edge-west-EW_1" index="1" speed="19.44" length="73.62" shape="-68.60,123.25 -142.22,123.53"/>
        <lane id="edge-west-EW_2" index="2" speed="19.44" length="73.62" shape="-68.61,120.05 -142.23,120.33"/>
        <lane id="edge-west-EW_3" index="3" speed="19.44" length="73.62" shape="-68.62,116.85 -142.24,117.13"/>
        <lane id="edge-west-EW_4" index="4" speed="19.44" length="73.62" shape="-68.63,113.65 -142.25,113.93"/>
        <lane id="edge-west-EW_5" index="5" speed="19.44" length="73.62" shape="-68.65,110.45 -142.27,110.73"/>
        <lane id="edge-west-EW_6" index="6" speed="19.44" length="73.62" shape="-68.66,107.25 -142.28,107.53"/>
        <lane id="edge-west-EW_7" index="7" speed="19.44" length="73.62" shape="-68.67,104.05 -142.29,104.33"/>
        <lane id="edge-west-EW_8" index="8" speed="19.44" length="73.62" shape="-68.68,100.85 -142.30,101.13"/>
        <lane id="edge-west-EW_9" index="9" speed="19.44" length="73.62" shape="-68.70,97.65 -142.31,97.93"/>
    </edge>

    <junction id="gneJ10" type="priority" x="-68.52" y="96.05" incLanes="edge-east-EW_0 edge-east-EW_1 edge-east-EW_2 edge-east-EW_3 edge-east-EW_4 edge-east-EW_5 edge-east-EW_6 edge-east-EW_7 edge-east-EW_8 edge-east-EW_9" intLanes=":gneJ10_0_0 :gneJ10_0_1 :gneJ10_0_2 :gneJ10_0_3 :gneJ10_0_4 :gneJ10_0_5 :gneJ10_0_6 :gneJ10_0_7 :gneJ10_0_8 :gneJ10_0_9" shape="-68.34,128.05 -68.34,96.05 -68.70,96.05 -68.58,128.05">
        <request index="0" response="0000000000" foes="0000000000" cont="0"/>
        <request index="1" response="0000000000" foes="0000000000" cont="0"/>
        <request index="2" response="0000000000" foes="0000000000" cont="0"/>
        <request index="3" response="0000000000" foes="0000000000" cont="0"/>
        <request index="4" response="0000000000" foes="0000000000" cont="0"/>
        <request index="5" response="0000000000" foes="0000000000" cont="0"/>
        <request index="6" response="0000000000" foes="0000000000" cont="0"/>
        <request index="7" response="0000000000" foes="0000000000" cont="0"/>
        <request index="8" response="0000000000" foes="0000000000" cont="0"/>
        <request index="9" response="0000000000" foes="0000000000" cont="0"/>
    </junction>
    <junction id="gneJ16" type="dead_end" x="-142.32" y="96.33" incLanes="edge-west-EW_0 edge-west-EW_1 edge-west-EW_2 edge-west-EW_3 edge-west-EW_4 edge-west-EW_5 edge-west-EW_6 edge-west-EW_7 edge-west-EW_8 edge-west-EW_9" intLanes="" shape="-142.20,128.33 -142.32,96.33"/>
    <junction id="gneJ6" type="dead_end" x="275.31" y="96.10" incLanes="" intLanes="" shape="275.31,96.10 275.31,128.10"/>

    <connection from="edge-east-EW" to="edge-west-EW" fromLane="0" toLane="0" via=":gneJ10_0_0" dir="s" state="M"/>
    <connection from="edge-east-EW" to="edge-west-EW" fromLane="1" toLane="1" via=":gneJ10_0_1" dir="s" state="M"/>
    <connection from="edge-east-EW" to="edge-west-EW" fromLane="2" toLane="2" via=":gneJ10_0_2" dir="s" state="M"/>
    <connection from="edge-east-EW" to="edge-west-EW" fromLane="3" toLane="3" via=":gneJ10_0_3" dir="s" state="M"/>
    <connection from="edge-east-EW" to="edge-west-EW" fromLane="4" toLane="4" via=":gneJ10_0_4" dir="s" state="M"/>
    <connection from="edge-east-EW" to="edge-west-EW" fromLane="5" toLane="5" via=":gneJ10_0_5" dir="s" state="M"/>
    <connection from="edge-east-EW" to="edge-west-EW" fromLane="6" toLane="6" via=":gneJ10_0_6" dir="s" state="M"/>
    <connection from="edge-east-EW" to="edge-west-EW" fromLane="7" toLane="7" via=":gneJ10_0_7" dir="s" state="M"/>
    <connection from="edge-east-EW" to="edge-west-EW" fromLane="8" toLane="8" via=":gneJ10_0_8" dir="s" state="M"/>
    <connection from="edge-east-EW" to="edge-west-EW" fromLane="9" toLane="9" via=":gneJ10_0_9" dir="s" state="M"/>

    <connection from=":gneJ10_0" to="edge-west-EW" fromLane="0" toLane="0" dir="s" state="M"/>
    <connection from=":gneJ10_0" to="edge-west-EW" fromLane="1" toLane="1" dir="s" state="M"/>
    <connection from=":gneJ10_0" to="edge-west-EW" fromLane="2" toLane="2" dir="s" state="M"/>
    <connection from=":gneJ10_0" to="edge-west-EW" fromLane="3" toLane="3" dir="s" state="M"/>
    <connection from=":gneJ10_0" to="edge-west-EW" fromLane="4" toLane="4" dir="s" state="M"/>
    <connection from=":gneJ10_0" to="edge-west-EW" fromLane="5" toLane="5" dir="s" state="M"/>
    <connection from=":gneJ10_0" to="edge-west-EW" fromLane="6" toLane="6" dir="s" state="M"/>
    <connection from=":gneJ10_0" to="edge-west-EW" fromLane="7" toLane="7" dir="s" state="M"/>
    <connection from=":gneJ10_0" to="edge-west-EW" fromLane="8" toLane="8" dir="s" state="M"/>
    <connection from=":gneJ10_0" to="edge-west-EW" fromLane="9" toLane="9" dir="s" state="M"/>

</net>
