<?xml version="1.0" encoding="UTF-8"?>

<!-- generated on 2022-06-21 18:16:41 by Eclipse SUMO netedit Version 1.13.0
<configuration xmlns:xsi="http://www.w3.org/2001/XMLSchema-instance" xsi:noNamespaceSchemaLocation="http://sumo.dlr.de/xsd/netconvertConfiguration.xsd">

    <input>
        <sumo-net-file value="scenarios/NGSIM/lankershim/map.net.xml"/>
    </input>

    <output>
        <output-file value="scenarios/NGSIM/lankershim/map.net.xml"/>
    </output>

    <processing>
        <geometry.min-radius.fix.railways value="false"/>
        <geometry.max-grade.fix value="false"/>
        <offset.disable-normalization value="true"/>
        <lefthand value="false"/>
    </processing>

    <junctions>
        <no-turnarounds value="true"/>
        <junctions.corner-detail value="5"/>
        <junctions.limit-turn-speed value="5.5"/>
        <rectangular-lane-cut value="false"/>
    </junctions>

    <pedestrian>
        <walkingareas value="false"/>
    </pedestrian>

    <report>
        <aggregate-warnings value="5"/>
    </report>

</configuration>
-->

<net version="1.9" junctionCornerDetail="5" limitTurnSpeed="5.50" xmlns:xsi="http://www.w3.org/2001/XMLSchema-instance" xsi:noNamespaceSchemaLocation="http://sumo.dlr.de/xsd/net_file.xsd">

    <location netOffset="0.00,0.00" convBoundary="-45.57,-0.98,60.21,506.13" origBoundary="-10000000000.00,-10000000000.00,10000000000.00,10000000000.00" projParameter="!"/>

    <edge id=":J1_0" function="internal">
        <lane id=":J1_0_0" index="0" speed="6.98" length="10.11" width="5.50" shape="22.77,17.18 19.87,17.53 17.77,18.61 16.48,20.43 15.99,22.98"/>
    </edge>
    <edge id=":J1_1" function="internal">
        <lane id=":J1_1_0" index="0" speed="11.39" length="21.04" shape="22.79,13.18 11.83,12.52 3.98,10.65 2.31,9.57"/>
        <lane id=":J1_1_1" index="1" speed="10.36" length="20.89" shape="22.81,9.18 13.22,8.77 6.37,7.65 2.39,5.89"/>
    </edge>
    <edge id=":J1_8" function="internal">
        <lane id=":J1_8_0" index="0" speed="11.39" length="8.20" shape="2.31,9.57 -0.75,7.59 -2.36,3.32"/>
    </edge>
    <edge id=":J1_9" function="internal">
        <lane id=":J1_9_0" index="0" speed="10.36" length="3.06" shape="2.39,5.89 2.24,5.82 0.84,3.29"/>
    </edge>
    <edge id=":J1_3" function="internal">
        <lane id=":J1_3_0" index="0" speed="13.89" length="19.70" width="5.50" shape="7.24,3.22 7.84,9.08 9.02,13.02 10.12,16.97 10.49,22.82"/>
        <lane id=":J1_3_1" index="1" speed="13.89" length="19.70" width="5.50" shape="4.04,3.25 5.00,22.66"/>
    </edge>
    <edge id=":J1_5" function="internal">
        <lane id=":J1_5_0" index="0" speed="13.89" length="19.15" shape="-7.76,22.29 -5.56,3.35"/>
        <lane id=":J1_5_1" index="1" speed="13.89" length="19.15" shape="-3.76,22.40 -2.36,3.32"/>
        <lane id=":J1_5_2" index="2" speed="13.89" length="19.15" shape="0.24,22.52 0.84,3.29"/>
    </edge>
    <edge id=":J12_0" function="internal">
        <lane id=":J12_0_0" index="0" speed="7.74" length="12.20" width="4.50" shape="23.39,331.21 19.35,331.66 16.42,332.75 14.58,334.48 13.84,336.85"/>
    </edge>
    <edge id=":J12_1" function="internal">
        <lane id=":J12_1_0" index="0" speed="13.89" length="40.33" shape="23.39,331.21 14.24,330.89 3.11,329.76 -7.98,328.17 -17.01,326.49"/>
        <lane id=":J12_1_1" index="1" speed="13.89" length="40.33" shape="23.28,328.01 14.25,327.71 3.40,326.60 -7.42,325.03 -16.32,323.36"/>
    </edge>
    <edge id=":J12_3" function="internal">
        <lane id=":J12_3_0" index="0" speed="11.82" length="31.70" width="4.50" shape="23.28,328.01 13.56,327.24 6.50,324.29 2.09,319.15 0.34,311.83"/>
    </edge>
    <edge id=":J12_4" function="internal">
        <lane id=":J12_4_0" index="0" speed="7.90" length="13.35" shape="16.55,311.59 17.16,316.06 18.45,319.23 20.42,321.09 23.06,321.64"/>
    </edge>
    <edge id=":J12_5" function="internal">
        <lane id=":J12_5_0" index="0" speed="13.89" length="25.03" width="4.50" shape="16.55,311.59 16.54,319.10 15.78,324.22 14.73,329.34 13.84,336.85"/>
        <lane id=":J12_5_1" index="1" speed="13.89" length="25.03" width="4.50" shape="12.55,311.79 12.46,319.16 11.53,324.17 10.31,329.17 9.35,336.53"/>
        <lane id=":J12_5_2" index="2" speed="13.89" length="25.03" width="4.50" shape="8.56,312.00 8.38,319.22 7.28,324.11 5.89,328.99 4.86,336.21"/>
    </edge>
    <edge id=":J12_8" function="internal">
        <lane id=":J12_8_0" index="0" speed="10.35" length="7.87" shape="4.56,312.21 3.40,319.89 3.33,319.96"/>
    </edge>
    <edge id=":J12_18" function="internal">
        <lane id=":J12_18_0" index="0" speed="10.35" length="21.29" shape="3.33,319.96 -0.80,323.77 -7.54,324.65 -16.32,323.36"/>
    </edge>
    <edge id=":J12_9" function="internal">
        <lane id=":J12_9_0" index="0" speed="6.19" length="9.72" width="4.50" shape="-14.95,317.10 -12.07,317.34 -10.07,316.61 -8.92,314.93 -8.65,312.28"/>
    </edge>
    <edge id=":J12_10" function="internal">
        <lane id=":J12_10_0" index="0" speed="13.89" length="38.74" shape="-14.95,317.10 -6.29,318.76 3.97,320.30 14.28,321.38 23.06,321.64"/>
        <lane id=":J12_10_1" index="1" speed="13.89" length="38.74" shape="-15.63,320.22 -6.85,321.89 3.69,323.46 14.27,324.57 23.17,324.84"/>
    </edge>
    <edge id=":J12_12" function="internal">
        <lane id=":J12_12_0" index="0" speed="11.73" length="28.21" width="4.50" shape="-15.63,320.22 -6.37,322.96 0.14,326.54 3.88,330.96 4.86,336.21"/>
    </edge>
    <edge id=":J12_13" function="internal">
        <lane id=":J12_13_0" index="0" speed="7.71" length="11.37" shape="-11.32,335.06 -11.50,331.82 -12.51,329.30 -14.34,327.53 -17.01,326.49"/>
    </edge>
    <edge id=":J12_14" function="internal">
        <lane id=":J12_14_0" index="0" speed="13.89" length="23.60" width="4.50" shape="-11.32,335.06 -10.51,328.29 -9.49,323.67 -8.72,319.06 -8.65,312.28"/>
        <lane id=":J12_14_1" index="1" speed="13.89" length="23.60" width="4.50" shape="-7.33,335.35 -6.43,328.41 -5.24,323.70 -4.30,319.00 -4.15,312.06"/>
        <lane id=":J12_14_2" index="2" speed="13.89" length="23.60" width="4.50" shape="-3.34,335.63 -2.35,328.53 -0.98,323.73 0.13,318.93 0.34,311.83"/>
    </edge>
    <edge id=":J12_17" function="internal">
        <lane id=":J12_17_0" index="0" speed="11.38" length="4.85" shape="0.65,335.91 2.31,331.35"/>
    </edge>
    <edge id=":J12_19" function="internal">
        <lane id=":J12_19_0" index="0" speed="11.38" length="22.41" shape="2.31,331.35 6.61,327.99 13.57,325.82 23.17,324.84"/>
    </edge>
    <edge id=":J13_0" function="internal">
        <lane id=":J13_0_0" index="0" speed="13.89" length="8.00" width="4.00" shape="33.39,118.93 41.38,119.09"/>
        <lane id=":J13_0_1" index="1" speed="13.89" length="8.00" width="4.00" shape="33.30,122.93 41.30,123.09"/>
    </edge>
    <edge id=":J15_0" function="internal">
        <lane id=":J15_0_0" index="0" speed="13.89" length="8.92" width="4.00" shape="10.37,267.63 11.11,270.11 12.56,271.53 14.00,272.96 14.74,275.43"/>
        <lane id=":J15_0_1" index="1" speed="13.89" length="8.92" width="4.00" shape="6.37,267.82 7.12,270.30 8.56,271.72 10.01,273.15 10.75,275.62"/>
        <lane id=":J15_0_2" index="2" speed="13.89" length="8.92" width="4.00" shape="2.38,268.01 3.12,270.49 4.57,271.91 6.01,273.34 6.75,275.81"/>
        <lane id=":J15_0_3" index="3" speed="13.89" length="8.92" width="4.00" shape="2.38,268.01 2.76,276.00"/>
    </edge>
    <edge id=":J17_0" function="internal">
        <lane id=":J17_0_0" index="0" speed="13.89" length="8.54" width="4.00" shape="-12.60,190.79 -13.07,188.31 -14.03,186.72 -14.96,185.13 -15.33,182.66"/>
        <lane id=":J17_0_1" index="1" speed="13.89" length="8.54" width="4.00" shape="-8.10,190.71 -8.65,188.26 -9.78,186.73 -10.88,185.20 -11.33,182.74"/>
        <lane id=":J17_0_2" index="2" speed="13.89" length="8.54" width="4.00" shape="-3.60,190.63 -4.23,188.20 -5.53,186.73 -6.80,185.27 -7.34,182.83"/>
        <lane id=":J17_0_3" index="3" speed="13.89" length="8.54" width="4.00" shape="-3.60,190.63 -3.34,182.92"/>
    </edge>
    <edge id=":J19_0" function="internal">
        <lane id=":J19_0_0" index="0" speed="6.46" length="8.92" width="4.00" shape="22.27,306.06 19.66,306.50 17.84,307.53 16.80,309.16 16.54,311.39"/>
        <lane id=":J19_0_1" index="1" speed="7.50" length="12.40" width="4.00" shape="22.27,306.06 17.91,306.58 14.84,307.68 13.05,309.35 12.54,311.59"/>
        <lane id=":J19_0_2" index="2" speed="8.46" length="16.06" width="4.00" shape="22.27,306.06 16.17,306.67 11.84,307.83 9.31,309.54 8.55,311.80"/>
    </edge>
    <edge id=":J19_3" function="internal">
        <lane id=":J19_3_0" index="0" speed="6.71" length="9.38" shape="15.80,297.57 16.31,299.99 17.53,301.68 19.47,302.64 22.12,302.86"/>
    </edge>
    <edge id=":J19_4" function="internal">
        <lane id=":J19_4_0" index="0" speed="13.89" length="13.83" width="4.00" shape="15.80,297.57 16.54,311.39"/>
        <lane id=":J19_4_1" index="1" speed="13.89" length="13.83" width="4.00" shape="11.81,297.78 12.54,311.59"/>
        <lane id=":J19_4_2" index="2" speed="13.89" length="13.83" width="4.00" shape="7.82,297.99 8.55,311.80"/>
        <lane id=":J19_4_3" index="3" speed="13.89" length="13.83" width="4.00" shape="3.82,298.20 4.55,312.01"/>
    </edge>
    <edge id=":J26_0" function="internal">
        <lane id=":J26_0_0" index="0" speed="13.89" length="18.20" width="4.50" shape="10.38,403.71 10.73,408.81 11.34,412.26 12.18,415.70 13.18,420.73"/>
        <lane id=":J26_0_1" index="1" speed="13.89" length="18.20" width="4.50" shape="5.88,403.85 6.23,409.13 6.86,412.71 7.71,416.26 8.74,421.47"/>
        <lane id=":J26_0_2" index="2" speed="13.89" length="18.20" width="4.50" shape="1.38,403.99 1.74,409.45 2.38,413.15 3.24,416.82 4.30,422.21"/>
        <lane id=":J26_0_3" index="3" speed="13.89" length="18.20" width="4.50" shape="1.38,403.99 1.05,409.64 0.14,413.52 -0.52,417.37 -0.14,422.95"/>
    </edge>
    <edge id=":J3_0" function="internal">
        <lane id=":J3_0_0" index="0" speed="13.89" length="8.29" shape="14.71,66.83 14.34,69.21 13.63,70.78 12.94,72.34 12.59,74.73"/>
        <lane id=":J3_0_1" index="1" speed="13.89" length="8.29" shape="9.21,66.67 9.39,74.67"/>
        <lane id=":J3_0_2" index="2" speed="13.89" length="8.29" shape="3.71,66.51 4.06,68.96 4.94,70.56 5.82,72.15 6.19,74.61"/>
    </edge>
    <edge id=":J4_0" function="internal">
        <lane id=":J4_0_0" index="0" speed="7.88" length="13.63" width="4.00" shape="20.23,134.65 15.55,134.93 12.21,135.99 10.20,137.83 9.51,140.46"/>
        <lane id=":J4_0_1" index="1" speed="9.43" length="20.08" width="4.00" shape="20.31,130.65 13.86,131.15 9.25,132.94 6.46,136.04 5.51,140.43"/>
    </edge>
    <edge id=":J4_2" function="internal">
        <lane id=":J4_2_0" index="0" speed="13.89" length="40.68" shape="20.31,130.65 -20.26,127.91"/>
        <lane id=":J4_2_1" index="1" speed="13.89" length="40.68" shape="20.40,126.65 -20.26,124.71"/>
    </edge>
    <edge id=":J4_4" function="internal">
        <lane id=":J4_4_0" index="0" speed="13.89" length="46.25" width="4.00" shape="20.40,126.65 10.72,124.29 3.90,117.67 -0.06,106.78 -1.16,91.62"/>
    </edge>
    <edge id=":J4_5" function="internal">
        <lane id=":J4_5_0" index="0" speed="10.36" length="24.46" width="4.00" shape="15.47,91.94 15.64,101.84 16.56,108.92 18.23,113.19 20.65,114.66"/>
    </edge>
    <edge id=":J4_6" function="internal">
        <lane id=":J4_6_0" index="0" speed="13.89" length="48.75" width="4.00" shape="12.27,91.88 9.51,140.46"/>
        <lane id=":J4_6_1" index="1" speed="13.89" length="48.75" width="4.00" shape="9.07,91.82 5.51,140.43"/>
        <lane id=":J4_6_2" index="2" speed="13.89" length="48.75" width="4.00" shape="5.87,91.76 1.51,140.40"/>
    </edge>
    <edge id=":J4_9" function="internal">
        <lane id=":J4_9_0" index="0" speed="13.89" length="17.20" shape="2.68,91.70 1.01,106.12 -0.03,108.59"/>
    </edge>
    <edge id=":J4_20" function="internal">
        <lane id=":J4_20_0" index="0" speed="13.89" length="27.97" shape="-0.03,108.59 -3.36,116.43 -10.46,122.63 -20.26,124.71"/>
    </edge>
    <edge id=":J4_10" function="internal">
        <lane id=":J4_10_0" index="0" speed="11.25" length="28.57" width="4.00" shape="-20.29,115.10 -15.59,113.61 -12.17,109.17 -10.02,101.79 -9.16,91.47"/>
    </edge>
    <edge id=":J4_11" function="internal">
        <lane id=":J4_11_0" index="0" speed="13.89" length="41.03" width="4.00" shape="-20.29,115.10 -9.68,115.59 0.14,116.74 9.96,117.96 20.56,118.66"/>
        <lane id=":J4_11_1" index="1" speed="13.89" length="41.03" width="4.00" shape="-20.28,118.30 -9.69,118.91 0.10,120.34 9.89,121.83 20.48,122.66"/>
    </edge>
    <edge id=":J4_13" function="internal">
        <lane id=":J4_13_0" index="0" speed="12.89" length="38.77" width="4.00" shape="-20.28,118.30 -8.94,119.65 -0.86,123.79 3.96,130.72 5.51,140.43"/>
        <lane id=":J4_13_1" index="1" speed="11.90" length="32.91" width="4.00" shape="-20.27,121.50 -10.69,122.65 -3.87,126.19 0.20,132.11 1.51,140.40"/>
    </edge>
    <edge id=":J4_15" function="internal">
        <lane id=":J4_15_0" index="0" speed="7.50" length="12.31" shape="-14.41,140.29 -14.70,136.27 -15.77,133.40 -17.62,131.68 -20.25,131.11"/>
    </edge>
    <edge id=":J4_16" function="internal">
        <lane id=":J4_16_0" index="0" speed="13.89" length="49.06" width="4.00" shape="-14.41,140.29 -9.16,91.47"/>
        <lane id=":J4_16_1" index="1" speed="13.89" length="49.06" width="4.00" shape="-10.41,140.32 -5.16,91.54"/>
        <lane id=":J4_16_2" index="2" speed="13.89" length="49.06" width="4.00" shape="-6.41,140.35 -1.16,91.62"/>
    </edge>
    <edge id=":J4_19" function="internal">
        <lane id=":J4_19_0" index="0" speed="11.99" length="8.19" width="4.00" shape="-2.41,140.37 -0.83,132.44 -0.77,132.36"/>
    </edge>
    <edge id=":J4_21" function="internal">
        <lane id=":J4_21_0" index="0" speed="11.99" length="24.70" width="4.00" shape="-0.77,132.36 3.51,126.85 10.61,123.59 20.48,122.66"/>
    </edge>
    <edge id=":J5_0" function="internal">
        <lane id=":J5_0_0" index="0" speed="7.52" length="12.06" shape="-13.71,484.03 -14.13,480.25 -15.33,477.56 -17.30,475.97 -20.04,475.48"/>
    </edge>
    <edge id=":J5_1" function="internal">
        <lane id=":J5_1_0" index="0" speed="13.89" length="32.01" width="4.00" shape="-13.71,484.03 -13.05,475.05 -11.67,468.79 -10.76,462.51 -11.48,453.48"/>
        <lane id=":J5_1_1" index="1" speed="13.89" length="32.01" width="4.00" shape="-9.86,484.01 -9.18,474.97 -7.75,468.56 -6.81,462.08 -7.54,452.80"/>
        <lane id=":J5_1_2" index="2" speed="13.89" length="32.01" width="4.00" shape="-6.01,483.99 -5.30,474.90 -3.84,468.34 -2.85,461.64 -3.60,452.13"/>
        <lane id=":J5_1_3" index="3" speed="13.89" length="32.01" width="4.00" shape="-6.01,483.99 -4.67,474.88 -1.83,468.22 0.52,461.32 0.34,451.45"/>
    </edge>
    <edge id=":J5_5" function="internal">
        <lane id=":J5_5_0" index="0" speed="12.95" length="8.98" shape="-6.01,483.99 -4.11,475.85 -3.65,475.42"/>
    </edge>
    <edge id=":J5_22" function="internal">
        <lane id=":J5_22_0" index="0" speed="12.95" length="31.45" shape="-3.65,475.42 1.75,470.30 11.56,467.35 25.32,466.99"/>
    </edge>
    <edge id=":J5_6" function="internal">
        <lane id=":J5_6_0" index="0" speed="8.44" length="16.69" width="4.50" shape="24.75,476.57 19.18,476.75 15.21,478.03 12.84,480.42 12.06,483.91"/>
        <lane id=":J5_6_1" index="1" speed="9.87" length="23.21" width="4.50" shape="24.94,473.38 17.32,473.65 11.88,475.50 8.63,478.92 7.56,483.93"/>
    </edge>
    <edge id=":J5_8" function="internal">
        <lane id=":J5_8_0" index="0" speed="13.89" length="45.16" shape="24.94,473.38 -20.09,472.28"/>
        <lane id=":J5_8_1" index="1" speed="13.89" length="45.16" shape="25.13,470.18 -20.14,469.08"/>
    </edge>
    <edge id=":J5_10" function="internal">
        <lane id=":J5_10_0" index="0" speed="13.29" length="33.85" width="4.00" shape="25.13,470.18 15.40,468.53 8.03,464.85 3.01,459.16 0.34,451.45"/>
    </edge>
    <edge id=":J5_11" function="internal">
        <lane id=":J5_11_0" index="0" speed="9.21" length="15.52" shape="17.80,448.47 19.03,453.64 20.76,457.39 22.98,459.71 25.70,460.60"/>
    </edge>
    <edge id=":J5_12" function="internal">
        <lane id=":J5_12_0" index="0" speed="13.89" length="35.25" width="4.50" shape="17.80,448.47 18.14,458.95 16.01,466.10 13.34,473.29 12.06,483.91"/>
        <lane id=":J5_12_1" index="1" speed="13.89" length="35.25" width="4.50" shape="13.37,449.23 13.67,459.50 11.52,466.49 8.84,473.53 7.56,483.93"/>
        <lane id=":J5_12_2" index="2" speed="13.89" length="35.25" width="4.50" shape="8.93,449.99 9.20,460.04 7.03,466.88 4.34,473.76 3.06,483.95"/>
        <lane id=":J5_12_3" index="3" speed="13.89" length="35.25" width="4.50" shape="4.49,450.74 4.73,460.58 2.54,467.27 -0.15,474.00 -1.44,483.97"/>
    </edge>
    <edge id=":J5_16" function="internal">
        <lane id=":J5_16_0" index="0" speed="11.99" length="9.93" shape="4.49,450.74 4.09,459.86 3.58,460.48"/>
    </edge>
    <edge id=":J5_23" function="internal">
        <lane id=":J5_23_0" index="0" speed="11.99" length="26.53" shape="3.58,460.48 -0.49,465.40 -8.75,468.19 -20.14,469.08"/>
    </edge>
    <edge id=":J5_17" function="internal">
        <lane id=":J5_17_0" index="0" speed="7.12" length="12.33" width="4.00" shape="-20.30,459.48 -16.07,459.05 -13.19,457.90 -11.66,456.04 -11.48,453.48"/>
    </edge>
    <edge id=":J5_18" function="internal">
        <lane id=":J5_18_0" index="0" speed="13.89" length="45.91" shape="-20.30,459.48 -8.92,459.93 2.61,461.21 14.14,462.71 25.51,463.79"/>
        <lane id=":J5_18_1" index="1" speed="13.89" length="45.91" shape="-20.25,462.68 -8.90,463.13 2.55,464.41 13.99,465.91 25.32,466.99"/>
    </edge>
    <edge id=":J5_20" function="internal">
        <lane id=":J5_20_0" index="0" speed="12.43" length="36.06" width="4.50" shape="-20.25,462.68 -10.09,463.87 -2.82,467.81 1.57,474.50 3.06,483.95"/>
        <lane id=":J5_20_1" index="1" speed="11.34" length="29.79" width="4.50" shape="-20.19,465.88 -12.02,466.90 -6.17,470.25 -2.64,475.94 -1.44,483.97"/>
    </edge>
    <edge id=":J8_0" function="internal">
        <lane id=":J8_0_0" index="0" speed="13.89" length="3.41" width="4.00" shape="-8.95,80.61 -9.02,79.60 -9.20,78.91 -9.38,78.22 -9.44,77.21"/>
        <lane id=":J8_0_1" index="1" speed="13.89" length="3.41" width="4.00" shape="-4.95,80.69 -5.02,79.69 -5.20,79.01 -5.38,78.33 -5.44,77.33"/>
        <lane id=":J8_0_2" index="2" speed="13.89" length="3.41" width="4.00" shape="-0.95,80.76 -1.02,79.78 -1.20,79.11 -1.38,78.44 -1.44,77.45"/>
    </edge>
    <edge id=":J9_0" function="internal">
        <lane id=":J9_0_0" index="0" speed="6.58" length="9.37" width="4.00" shape="14.99,216.87 12.36,217.23 10.50,218.29 9.40,220.06 9.08,222.53"/>
    </edge>
    <edge id=":J9_1" function="internal">
        <lane id=":J9_1_0" index="0" speed="13.89" length="11.37" width="4.00" shape="9.01,211.27 9.08,222.53"/>
        <lane id=":J9_1_1" index="1" speed="13.89" length="11.37" width="4.00" shape="5.02,211.24 5.08,222.61"/>
        <lane id=":J9_1_2" index="2" speed="13.89" length="11.37" width="4.00" shape="1.02,211.21 1.08,222.69"/>
    </edge>

    <edge id="-E0" from="J1" to="J0" priority="-1">
        <lane id="-E0_0" index="0" speed="13.89" length="4.25" shape="-5.56,3.35 -5.60,-0.90"/>
        <lane id="-E0_1" index="1" speed="13.89" length="4.25" shape="-2.36,3.32 -2.40,-0.93"/>
        <lane id="-E0_2" index="2" speed="13.89" length="4.25" shape="0.84,3.29 0.80,-0.96"/>
    </edge>
    <edge id="-E11" from="J12" to="J14" priority="-1" shape="-12.00,322.67 -32.93,318.08">
        <lane id="-E11_0" index="0" speed="13.89" length="17.36" shape="-17.01,326.49 -33.96,322.77"/>
        <lane id="-E11_1" index="1" speed="13.89" length="17.36" shape="-16.32,323.36 -33.27,319.64"/>
    </edge>
    <edge id="-E12" from="J12" to="J18" priority="-1" shape="8.50,326.95 29.66,326.22">
        <lane id="-E12_0" index="0" speed="13.89" length="6.43" shape="23.06,321.64 29.49,321.42"/>
        <lane id="-E12_1" index="1" speed="13.89" length="6.43" shape="23.17,324.84 29.60,324.62"/>
    </edge>
    <edge id="-E13" from="J19" to="J21" priority="-1">
        <lane id="-E13_0" index="0" speed="13.89" length="2.25" shape="22.12,302.86 24.36,302.75"/>
    </edge>
    <edge id="-E14" from="J5" to="J23" priority="-1">
        <lane id="-E14_0" index="0" speed="13.89" length="5.30" shape="25.70,460.60 30.98,460.91"/>
        <lane id="-E14_1" index="1" speed="13.89" length="5.30" shape="25.51,463.79 30.79,464.11"/>
        <lane id="-E14_2" index="2" speed="13.89" length="5.30" shape="25.32,466.99 30.60,467.30"/>
    </edge>
    <edge id="-E15" from="J24" to="J5" priority="-1">
        <lane id="-E15_0" index="0" speed="13.89" length="3.81" shape="-24.11,459.54 -20.30,459.48"/>
        <lane id="-E15_1" index="1" speed="13.89" length="3.81" shape="-24.06,462.74 -20.25,462.68"/>
        <lane id="-E15_2" index="2" speed="13.89" length="3.81" shape="-24.01,465.94 -20.19,465.88"/>
    </edge>
    <edge id="-E16" from="J25" to="J5" priority="-1" shape="-3.59,506.13 -3.76,484.01">
        <lane id="-E16_0" index="0" speed="13.89" length="22.17" width="4.50" shape="-13.54,506.21 -13.71,484.03"/>
        <lane id="-E16_1" index="1" speed="13.89" length="22.17" shape="-9.69,506.18 -9.86,484.01"/>
        <lane id="-E16_2" index="2" speed="13.89" length="22.17" width="4.50" shape="-5.84,506.15 -6.01,483.99"/>
    </edge>
    <edge id="-E4" from="J5" to="J12" priority="-1" shape="2.44,451.84 -2.47,423.15 -0.92,390.97 2.42,339.48">
        <lane id="-E4_0" index="0" speed="13.89" length="117.55" width="4.00" shape="-11.48,453.48 -16.53,424.00 -14.90,390.18 -11.32,335.06"/>
        <lane id="-E4_1" index="1" speed="13.89" length="117.55" width="4.00" shape="-7.54,452.80 -12.51,423.76 -10.90,390.41 -7.33,335.35"/>
        <lane id="-E4_2" index="2" speed="13.89" length="117.55" width="4.00" shape="-3.60,452.13 -8.49,423.52 -6.91,390.63 -3.34,335.63"/>
        <lane id="-E4_3" index="3" speed="13.89" length="117.55" width="4.00" shape="0.34,451.45 -4.48,423.27 -2.92,390.86 0.65,335.91"/>
    </edge>
    <edge id="-E40" from="J12" to="J17" priority="-1" shape="3.31,326.22 -0.23,255.08 -1.42,186.79">
        <lane id="-E40_0" index="0" speed="13.89" length="121.42" width="4.50" shape="-8.65,312.28 -11.48,255.46 -12.60,190.79"/>
        <lane id="-E40_1" index="1" speed="13.89" length="121.42" width="4.50" shape="-4.15,312.06 -6.98,255.31 -8.10,190.71"/>
        <lane id="-E40_2" index="2" speed="13.89" length="121.42" width="4.50" shape="0.34,311.83 -2.48,255.16 -3.60,190.63"/>
    </edge>
    <edge id="-E40.121" from="J17" to="J4" priority="-1" shape="-1.42,186.79 -0.35,137.66">
        <lane id="-E40.121_0" index="0" speed="13.89" length="42.47" width="4.00" shape="-15.33,182.66 -14.41,140.29"/>
        <lane id="-E40.121_1" index="1" speed="13.89" length="42.47" width="4.00" shape="-11.33,182.74 -10.41,140.32"/>
        <lane id="-E40.121_2" index="2" speed="13.89" length="42.47" width="4.00" shape="-7.34,182.83 -6.41,140.35"/>
        <lane id="-E40.121_3" index="3" speed="13.89" length="42.47" width="4.00" shape="-3.34,182.92 -2.41,140.37"/>
    </edge>
    <edge id="-E5" from="J4" to="J13" priority="-1" shape="14.97,124.54 37.26,125.01">
        <lane id="-E5_0" index="0" speed="13.89" length="12.82" width="4.00" shape="20.65,114.66 33.47,114.93"/>
        <lane id="-E5_1" index="1" speed="13.89" length="12.82" width="4.00" shape="20.56,118.66 33.39,118.93"/>
        <lane id="-E5_2" index="2" speed="13.89" length="12.82" width="4.00" shape="20.48,122.66 33.30,122.93"/>
    </edge>
    <edge id="-E5.14" from="J13" to="J6" priority="-1">
        <lane id="-E5.14_0" index="0" speed="13.89" length="18.95" width="4.00" shape="41.38,119.09 60.33,119.48"/>
        <lane id="-E5.14_1" index="1" speed="13.89" length="18.95" width="4.00" shape="41.30,123.09 60.25,123.48"/>
    </edge>
    <edge id="-E6" from="J7" to="J4" priority="-1" shape="-45.57,123.17 -18.41,123.09">
        <lane id="-E6_0" index="0" speed="13.89" length="25.31" shape="-45.59,115.17 -20.29,115.10"/>
        <lane id="-E6_1" index="1" speed="13.89" length="25.31" shape="-45.58,118.37 -20.28,118.30"/>
        <lane id="-E6_2" index="2" speed="13.89" length="25.31" shape="-45.57,121.57 -20.27,121.50"/>
    </edge>
    <edge id="E0" from="J0" to="J1" priority="-1">
        <lane id="E0_0" index="0" speed="13.89" length="4.25" shape="7.20,-1.03 7.24,3.22"/>
        <lane id="E0_1" index="1" speed="13.89" length="4.25" shape="4.00,-1.00 4.04,3.25"/>
    </edge>
    <edge id="E1" from="J2" to="J1" priority="-1" shape="30.81,7.22 8.98,7.11">
        <lane id="E1_0" index="0" speed="13.89" length="7.99" width="4.00" shape="30.76,17.22 22.77,17.18"/>
        <lane id="E1_1" index="1" speed="13.89" length="7.99" width="4.00" shape="30.78,13.22 22.79,13.18"/>
        <lane id="E1_2" index="2" speed="13.89" length="7.99" width="4.00" shape="30.80,9.22 22.81,9.18"/>
    </edge>
    <edge id="E11" from="J14" to="J12" priority="-1" shape="-32.93,318.08 -12.24,322.60">
        <lane id="E11_0" index="0" speed="13.89" length="17.36" shape="-31.91,313.39 -14.95,317.10"/>
        <lane id="E11_1" index="1" speed="13.89" length="17.36" shape="-32.59,316.52 -15.63,320.22"/>
    </edge>
    <edge id="E12" from="J18" to="J12" priority="-1" shape="29.66,326.22 8.27,326.85">
        <lane id="E12_0" index="0" speed="13.89" length="6.42" shape="29.80,331.02 23.39,331.21"/>
        <lane id="E12_1" index="1" speed="13.89" length="6.42" shape="29.71,327.82 23.28,328.01"/>
    </edge>
    <edge id="E13" from="J21" to="J19" priority="-1">
        <lane id="E13_0" index="0" speed="13.89" length="2.25" shape="24.52,305.95 22.27,306.06"/>
    </edge>
    <edge id="E14" from="J23" to="J5" priority="-1">
        <lane id="E14_0" index="0" speed="13.89" length="5.30" shape="30.04,476.89 24.75,476.57"/>
        <lane id="E14_1" index="1" speed="13.89" length="5.30" shape="30.23,473.69 24.94,473.38"/>
        <lane id="E14_2" index="2" speed="13.89" length="5.30" shape="30.42,470.50 25.13,470.18"/>
    </edge>
    <edge id="E15" from="J5" to="J24" priority="-1">
        <lane id="E15_0" index="0" speed="13.89" length="3.81" shape="-20.04,475.48 -23.85,475.54"/>
        <lane id="E15_1" index="1" speed="13.89" length="3.81" shape="-20.09,472.28 -23.90,472.34"/>
        <lane id="E15_2" index="2" speed="13.89" length="3.81" shape="-20.14,469.08 -23.95,469.14"/>
    </edge>
    <edge id="E16" from="J5" to="J25" priority="-1" shape="-3.69,483.98 -3.59,506.13">
        <lane id="E16_0" index="0" speed="13.89" length="22.15" width="4.50" shape="12.06,483.91 12.16,506.06"/>
        <lane id="E16_1" index="1" speed="13.89" length="22.15" width="4.50" shape="7.56,483.93 7.66,506.08"/>
        <lane id="E16_2" index="2" speed="13.89" length="22.15" width="4.50" shape="3.06,483.95 3.16,506.10"/>
        <lane id="E16_3" index="3" speed="13.89" length="22.15" width="4.50" shape="-1.44,483.97 -1.34,506.12"/>
    </edge>
    <edge id="E2" from="J1" to="J3" priority="-1" shape="2.54,12.57 0.86,70.05">
        <lane id="E2_0" index="0" speed="13.89" length="43.87" width="5.50" shape="15.99,22.98 14.71,66.83"/>
        <lane id="E2_1" index="1" speed="13.89" length="43.87" width="5.50" shape="10.49,22.82 9.21,66.67"/>
        <lane id="E2_2" index="2" speed="13.89" length="43.87" width="5.50" shape="5.00,22.66 3.71,66.51"/>
    </edge>
    <edge id="E3" from="J3" to="J4" priority="-1" shape="1.46,70.90 1.07,91.98">
        <lane id="E3_0" index="0" speed="13.89" length="17.15" shape="15.79,74.79 15.47,91.94"/>
        <lane id="E3_1" index="1" speed="13.89" length="17.15" shape="12.59,74.73 12.27,91.88"/>
        <lane id="E3_2" index="2" speed="13.89" length="17.15" shape="9.39,74.67 9.07,91.82"/>
        <lane id="E3_3" index="3" speed="13.89" length="17.15" shape="6.19,74.61 5.87,91.76"/>
        <lane id="E3_4" index="4" speed="13.89" length="17.15" shape="2.99,74.55 2.68,91.70"/>
    </edge>
    <edge id="E4" from="J4" to="J9" priority="-1" shape="-0.47,137.71 -1.03,217.65">
        <lane id="E4_0" index="0" speed="13.89" length="70.81" width="4.00" shape="9.51,140.46 9.01,211.27"/>
        <lane id="E4_1" index="1" speed="13.89" length="70.81" width="4.00" shape="5.51,140.43 5.02,211.24"/>
        <lane id="E4_2" index="2" speed="13.89" length="70.81" width="4.00" shape="1.51,140.40 1.02,211.21"/>
    </edge>
    <edge id="E4.124" from="J15" to="J19" priority="-1" shape="0.57,272.10 1.70,295.95 2.20,305.42">
        <lane id="E4.124_0" index="0" speed="13.89" length="22.19" width="4.00" shape="14.74,275.43 15.68,295.27 15.80,297.57"/>
        <lane id="E4.124_1" index="1" speed="13.89" length="22.19" width="4.00" shape="10.75,275.62 11.69,295.46 11.81,297.78"/>
        <lane id="E4.124_2" index="2" speed="13.89" length="22.19" width="4.00" shape="6.75,275.81 7.69,295.66 7.82,297.99"/>
        <lane id="E4.124_3" index="3" speed="13.89" length="22.19" width="4.00" shape="2.76,276.00 3.70,295.85 3.82,298.20"/>
    </edge>
    <edge id="E4.150" from="J12" to="J26" priority="-1" shape="3.31,326.22 -1.27,390.87 -1.20,393.16">
        <lane id="E4.150_0" index="0" speed="13.89" length="67.47" width="4.50" shape="13.84,336.85 9.99,391.10 10.38,403.71"/>
        <lane id="E4.150_1" index="1" speed="13.89" length="67.47" width="4.50" shape="9.35,336.53 5.49,391.01 5.88,403.85"/>
        <lane id="E4.150_2" index="2" speed="13.89" length="67.47" width="4.50" shape="4.86,336.21 0.98,390.92 1.38,403.99"/>
    </edge>
    <edge id="E4.157" from="J19" to="J12" priority="-1">