<?xml version="1.0" encoding="UTF-8"?>

<!-- generated on 2022-06-21 14:17:32 by Eclipse SUMO netedit Version 1.13.0
<configuration xmlns:xsi="http://www.w3.org/2001/XMLSchema-instance" xsi:noNamespaceSchemaLocation="http://sumo.dlr.de/xsd/netconvertConfiguration.xsd">

    <input>
        <sumo-net-file value="scenarios/NGSIM/lankershim/map.net.xml"/>
    </input>

    <output>
        <output-file value="/home/qianyi/SMARTS/scenarios/NGSIM/lankershim/map.net.xml"/>
    </output>

    <processing>
        <geometry.min-radius.fix.railways value="false"/>
        <geometry.max-grade.fix value="false"/>
        <offset.disable-normalization value="true"/>
        <lefthand value="false"/>
    </processing>

    <junctions>
        <no-internal-links value="false"/>
        <no-turnarounds value="true"/>
        <junctions.corner-detail value="5"/>
        <junctions.limit-turn-speed value="5.5"/>
        <rectangular-lane-cut value="false"/>
    </junctions>

    <pedestrian>
        <walkingareas value="false"/>
    </pedestrian>

    <report>
        <aggregate-warnings value="5"/>
    </report>

</configuration>
-->

<net version="1.9" junctionCornerDetail="5" limitTurnSpeed="5.50" xmlns:xsi="http://www.w3.org/2001/XMLSchema-instance" xsi:noNamespaceSchemaLocation="http://sumo.dlr.de/xsd/net_file.xsd">

    <location netOffset="0.00,0.00" convBoundary="-45.37,-0.98,55.71,506.13" origBoundary="-10000000000.00,-10000000000.00,10000000000.00,10000000000.00" projParameter="!"/>

    <edge id=":J1_0" function="internal">
        <lane id=":J1_0_0" index="0" speed="13.89" length="21.87" shape="-11.43,24.93 -10.66,18.64 -8.59,14.52 -6.47,10.40 -5.55,4.10"/>
        <lane id=":J1_0_1" index="1" speed="13.89" length="21.87" shape="-8.23,24.81 -7.46,18.54 -5.39,14.44 -3.27,10.34 -2.35,4.07"/>
        <lane id=":J1_0_2" index="2" speed="13.89" length="21.87" shape="-5.03,24.70 -4.26,18.45 -2.19,14.37 -0.07,10.28 0.85,4.03"/>
    </edge>
    <edge id=":J1_3" function="internal">
        <lane id=":J1_3_0" index="0" speed="6.71" length="9.70" width="4.00" shape="18.82,17.97 16.18,18.34 14.32,19.48 13.25,21.37 12.97,24.03"/>
    </edge>
    <edge id=":J1_4" function="internal">
        <lane id=":J1_4_0" index="0" speed="11.75" length="31.24" shape="18.82,17.97 8.22,17.08 0.62,14.48 -3.97,10.15 -5.55,4.10"/>
        <lane id=":J1_4_1" index="1" speed="10.70" length="25.68" shape="18.83,13.97 9.60,13.33 3.00,11.47 -0.99,8.38 -2.35,4.07"/>
        <lane id=":J1_4_2" index="2" speed="9.56" length="20.26" shape="18.84,9.97 10.99,9.58 5.38,8.47 2.00,6.62 0.85,4.03"/>
    </edge>
    <edge id=":J1_7" function="internal">
        <lane id=":J1_7_0" index="0" speed="13.89" length="20.32" width="4.00" shape="7.25,3.97 8.97,24.18"/>
        <lane id=":J1_7_1" index="1" speed="13.89" length="20.32" width="4.00" shape="4.05,4.00 4.97,24.33"/>
    </edge>
    <edge id=":J12_0" function="internal">
        <lane id=":J12_0_0" index="0" speed="7.74" length="12.20" width="4.50" shape="23.39,331.21 19.35,331.66 16.42,332.75 14.58,334.48 13.84,336.85"/>
    </edge>
    <edge id=":J12_1" function="internal">
        <lane id=":J12_1_0" index="0" speed="13.89" length="40.33" shape="23.39,331.21 14.24,330.89 3.11,329.76 -7.98,328.17 -17.01,326.49"/>
        <lane id=":J12_1_1" index="1" speed="13.89" length="40.33" shape="23.28,328.01 14.25,327.71 3.40,326.60 -7.42,325.03 -16.32,323.36"/>
    </edge>
    <edge id=":J12_3" function="internal">
        <lane id=":J12_3_0" index="0" speed="11.82" length="31.70" width="4.50" shape="23.28,328.01 13.56,327.24 6.50,324.29 2.09,319.15 0.34,311.83"/>
    </edge>
    <edge id=":J12_4" function="internal">
        <lane id=":J12_4_0" index="0" speed="7.90" length="13.35" shape="16.55,311.59 17.16,316.06 18.45,319.23 20.42,321.09 23.06,321.64"/>
    </edge>
    <edge id=":J12_5" function="internal">
        <lane id=":J12_5_0" index="0" speed="13.89" length="25.03" width="4.50" shape="16.55,311.59 16.54,319.10 15.78,324.22 14.73,329.34 13.84,336.85"/>
        <lane id=":J12_5_1" index="1" speed="13.89" length="25.03" width="4.50" shape="12.55,311.79 12.46,319.16 11.53,324.17 10.31,329.17 9.35,336.53"/>
        <lane id=":J12_5_2" index="2" speed="13.89" length="25.03" width="4.50" shape="8.56,312.00 8.38,319.22 7.28,324.11 5.89,328.99 4.86,336.21"/>
    </edge>
    <edge id=":J12_8" function="internal">
        <lane id=":J12_8_0" index="0" speed="10.35" length="7.87" shape="4.56,312.21 3.40,319.89 3.33,319.96"/>
    </edge>
    <edge id=":J12_18" function="internal">
        <lane id=":J12_18_0" index="0" speed="10.35" length="21.29" shape="3.33,319.96 -0.80,323.77 -7.54,324.65 -16.32,323.36"/>
    </edge>
    <edge id=":J12_9" function="internal">
        <lane id=":J12_9_0" index="0" speed="6.19" length="9.72" width="4.50" shape="-14.95,317.10 -12.07,317.34 -10.07,316.61 -8.92,314.93 -8.65,312.28"/>
    </edge>
    <edge id=":J12_10" function="internal">
        <lane id=":J12_10_0" index="0" speed="13.89" length="38.74" shape="-14.95,317.10 -6.29,318.76 3.97,320.30 14.28,321.38 23.06,321.64"/>
        <lane id=":J12_10_1" index="1" speed="13.89" length="38.74" shape="-15.63,320.22 -6.85,321.89 3.69,323.46 14.27,324.57 23.17,324.84"/>
    </edge>
    <edge id=":J12_12" function="internal">
        <lane id=":J12_12_0" index="0" speed="11.73" length="28.21" width="4.50" shape="-15.63,320.22 -6.37,322.96 0.14,326.54 3.88,330.96 4.86,336.21"/>
    </edge>
    <edge id=":J12_13" function="internal">
        <lane id=":J12_13_0" index="0" speed="7.71" length="11.37" shape="-11.32,335.06 -11.50,331.82 -12.51,329.30 -14.34,327.53 -17.01,326.49"/>
    </edge>
    <edge id=":J12_14" function="internal">
        <lane id=":J12_14_0" index="0" speed="13.89" length="23.60" width="4.50" shape="-11.32,335.06 -10.51,328.29 -9.49,323.67 -8.72,319.06 -8.65,312.28"/>
        <lane id=":J12_14_1" index="1" speed="13.89" length="23.60" width="4.50" shape="-7.33,335.35 -6.43,328.41 -5.24,323.70 -4.30,319.00 -4.15,312.06"/>
        <lane id=":J12_14_2" index="2" speed="13.89" length="23.60" width="4.50" shape="-3.34,335.63 -2.35,328.53 -0.98,323.73 0.13,318.93 0.34,311.83"/>
    </edge>
    <edge id=":J12_17" function="internal">
        <lane id=":J12_17_0" index="0" speed="11.38" length="4.85" shape="0.65,335.91 2.31,331.35"/>
    </edge>
    <edge id=":J12_19" function="internal">
        <lane id=":J12_19_0" index="0" speed="11.38" length="22.41" shape="2.31,331.35 6.61,327.99 13.57,325.82 23.17,324.84"/>
    </edge>
    <edge id=":J13_0" function="internal">
        <lane id=":J13_0_0" index="0" speed="13.89" length="7.97" width="4.00" shape="21.11,122.18 29.09,121.59"/>
        <lane id=":J13_0_1" index="1" speed="13.89" length="7.97" width="4.00" shape="21.44,126.16 29.35,125.58"/>
    </edge>
    <edge id=":J15_0" function="internal">
        <lane id=":J15_0_0" index="0" speed="13.89" length="8.92" width="4.00" shape="10.37,267.63 11.11,270.11 12.56,271.53 14.00,272.96 14.74,275.43"/>
        <lane id=":J15_0_1" index="1" speed="13.89" length="8.92" width="4.00" shape="6.37,267.82 7.12,270.30 8.56,271.72 10.01,273.15 10.75,275.62"/>
        <lane id=":J15_0_2" index="2" speed="13.89" length="8.92" width="4.00" shape="2.38,268.01 3.12,270.49 4.57,271.91 6.01,273.34 6.75,275.81"/>
        <lane id=":J15_0_3" index="3" speed="13.89" length="8.92" width="4.00" shape="2.38,268.01 2.76,276.00"/>
    </edge>
    <edge id=":J17_0" function="internal">
        <lane id=":J17_0_0" index="0" speed="13.89" length="8.61" width="4.00" shape="-12.82,190.56 -13.30,188.11 -14.27,186.54 -15.22,184.98 -15.66,182.52"/>
        <lane id=":J17_0_1" index="1" speed="13.89" length="8.61" width="4.00" shape="-8.32,190.47 -8.88,188.01 -10.02,186.49 -11.15,184.97 -11.66,182.51"/>
        <lane id=":J17_0_2" index="2" speed="13.89" length="8.61" width="4.00" shape="-3.82,190.38 -4.46,187.91 -5.77,186.44 -7.07,184.96 -7.66,182.50"/>
        <lane id=":J17_0_3" index="3" speed="13.89" length="8.61" width="4.00" shape="-3.82,190.38 -3.66,182.48"/>
    </edge>
    <edge id=":J19_0" function="internal">
        <lane id=":J19_0_0" index="0" speed="6.46" length="8.92" width="4.00" shape="22.27,306.06 19.66,306.50 17.84,307.53 16.80,309.16 16.54,311.39"/>
        <lane id=":J19_0_1" index="1" speed="7.50" length="12.40" width="4.00" shape="22.27,306.06 17.91,306.58 14.84,307.68 13.05,309.35 12.54,311.59"/>
        <lane id=":J19_0_2" index="2" speed="8.46" length="16.06" width="4.00" shape="22.27,306.06 16.17,306.67 11.84,307.83 9.31,309.54 8.55,311.80"/>
    </edge>
    <edge id=":J19_3" function="internal">
        <lane id=":J19_3_0" index="0" speed="6.71" length="9.38" shape="15.80,297.57 16.31,299.99 17.53,301.68 19.47,302.64 22.12,302.86"/>
    </edge>
    <edge id=":J19_4" function="internal">
        <lane id=":J19_4_0" index="0" speed="13.89" length="13.83" width="4.00" shape="15.80,297.57 16.54,311.39"/>
        <lane id=":J19_4_1" index="1" speed="13.89" length="13.83" width="4.00" shape="11.81,297.78 12.54,311.59"/>
        <lane id=":J19_4_2" index="2" speed="13.89" length="13.83" width="4.00" shape="7.82,297.99 8.55,311.80"/>
        <lane id=":J19_4_3" index="3" speed="13.89" length="13.83" width="4.00" shape="3.82,298.20 4.55,312.01"/>
    </edge>
    <edge id=":J26_0" function="internal">
        <lane id=":J26_0_0" index="0" speed="13.89" length="18.20" width="4.50" shape="10.38,403.71 10.73,408.81 11.34,412.26 12.18,415.70 13.18,420.73"/>
        <lane id=":J26_0_1" index="1" speed="13.89" length="18.20" width="4.50" shape="5.88,403.85 6.23,409.13 6.86,412.71 7.71,416.26 8.74,421.47"/>
        <lane id=":J26_0_2" index="2" speed="13.89" length="18.20" width="4.50" shape="1.38,403.99 1.74,409.45 2.38,413.15 3.24,416.82 4.30,422.21"/>
        <lane id=":J26_0_3" index="3" speed="13.89" length="18.20" width="4.50" shape="1.38,403.99 1.05,409.64 0.14,413.52 -0.52,417.37 -0.14,422.95"/>
    </edge>
    <edge id=":J3_0" function="internal">
        <lane id=":J3_0_0" index="0" speed="13.89" length="7.88" shape="14.92,76.98 14.61,79.38 13.75,80.93 12.81,82.47 12.28,84.87"/>
        <lane id=":J3_0_1" index="1" speed="13.89" length="7.88" shape="10.92,77.13 10.73,79.41 10.14,80.91 9.48,82.42 9.09,84.69"/>
        <lane id=":J3_0_2" index="2" speed="13.89" length="7.88" shape="6.93,77.28 6.85,79.44 6.54,80.90 6.16,82.36 5.89,84.51"/>
    </edge>
    <edge id=":J4_0" function="internal">
        <lane id=":J4_0_0" index="0" speed="8.18" length="15.31" width="4.00" shape="-15.76,148.20 -16.16,142.67 -17.32,138.78 -19.23,136.52 -21.91,135.90"/>
    </edge>
    <edge id=":J4_1" function="internal">
        <lane id=":J4_1_0" index="0" speed="13.89" length="40.06" width="4.00" shape="-11.76,148.08 -10.25,107.83"/>
        <lane id=":J4_1_1" index="1" speed="13.89" length="40.06" width="4.00" shape="-7.76,148.07 -6.25,108.04"/>
        <lane id=":J4_1_2" index="2" speed="13.89" length="40.06" width="4.00" shape="-3.76,148.05 -2.26,108.24"/>
    </edge>
    <edge id=":J4_4" function="internal">
        <lane id=":J4_4_0" index="0" speed="12.90" length="9.77" width="4.00" shape="-3.76,148.05 -2.30,139.27 -1.82,138.55"/>
    </edge>
    <edge id=":J4_19" function="internal">
        <lane id=":J4_19_0" index="0" speed="12.90" length="26.18" width="4.00" shape="-1.82,138.55 2.12,132.72 9.52,128.39 19.88,126.29"/>
    </edge>
    <edge id=":J4_5" function="internal">
        <lane id=":J4_5_0" index="0" speed="7.55" length="11.72" width="4.00" shape="13.42,138.78 11.06,139.49 9.39,141.25 8.41,144.05 8.12,147.90"/>
        <lane id=":J4_5_1" index="1" speed="9.19" length="17.97" width="4.00" shape="13.27,134.78 9.21,135.84 6.33,138.39 4.63,142.43 4.12,147.95"/>
    </edge>
    <edge id=":J4_7" function="internal">
        <lane id=":J4_7_0" index="0" speed="13.89" length="35.25" width="4.00" shape="13.27,134.78 -21.91,135.90"/>
        <lane id=":J4_7_1" index="1" speed="13.89" length="35.25" width="4.00" shape="13.11,130.78 -22.17,131.91"/>
    </edge>
    <edge id=":J4_9" function="internal">
        <lane id=":J4_9_0" index="0" speed="11.42" length="32.42" width="4.00" shape="13.11,130.78 4.77,129.79 -0.04,125.54 -2.12,118.28 -2.26,108.24"/>
    </edge>
    <edge id=":J4_10" function="internal">
        <lane id=":J4_10_0" index="0" speed="7.14" length="12.24" width="4.00" shape="14.14,109.08 14.26,113.30 15.19,116.24 16.90,117.91 19.42,118.30"/>
    </edge>
    <edge id=":J4_11" function="internal">
        <lane id=":J4_11_0" index="0" speed="13.89" length="39.37" width="4.00" shape="10.94,108.92 8.12,147.90"/>
        <lane id=":J4_11_1" index="1" speed="13.89" length="39.37" width="4.00" shape="7.74,108.75 4.12,147.95"/>
        <lane id=":J4_11_2" index="2" speed="13.89" length="39.37" width="4.00" shape="4.55,108.59 0.12,148.00"/>
    </edge>
    <edge id=":J4_14" function="internal">
        <lane id=":J4_14_0" index="0" speed="13.25" length="4.60" width="4.00" shape="1.35,108.42 0.46,112.94"/>
    </edge>
    <edge id=":J4_20" function="internal">
        <lane id=":J4_20_0" index="0" speed="13.25" length="32.37" width="4.00" shape="0.46,112.94 -0.58,118.15 -5.14,125.31 -12.34,129.89 -22.17,131.91"/>
    </edge>
    <edge id=":J4_15" function="internal">
        <lane id=":J4_15_0" index="0" speed="10.47" length="22.51" width="4.00" shape="-22.70,123.88 -17.54,122.58 -13.75,119.47 -11.32,114.55 -10.25,107.83"/>
    </edge>
    <edge id=":J4_16" function="internal">
        <lane id=":J4_16_0" index="0" speed="13.89" length="42.36" width="4.00" shape="-22.70,123.88 19.65,122.30"/>
        <lane id=":J4_16_1" index="1" speed="13.89" length="42.36" width="4.00" shape="-22.44,127.87 19.88,126.29"/>
    </edge>
    <edge id=":J4_18" function="internal">
        <lane id=":J4_18_0" index="0" speed="12.09" length="34.93" width="4.00" shape="-22.44,127.87 -12.67,128.56 -5.65,132.14 -1.39,138.63 0.12,148.00"/>
    </edge>
    <edge id=":J5_0" function="internal">
        <lane id=":J5_0_0" index="0" speed="7.52" length="12.06" shape="-13.71,484.03 -14.13,480.25 -15.33,477.56 -17.30,475.97 -20.04,475.48"/>
    </edge>
    <edge id=":J5_1" function="internal">
        <lane id=":J5_1_0" index="0" speed="13.89" length="32.01" width="4.00" shape="-13.71,484.03 -13.05,475.05 -11.67,468.79 -10.76,462.51 -11.48,453.48"/>
        <lane id=":J5_1_1" index="1" speed="13.89" length="32.01" width="4.00" shape="-9.86,484.01 -9.18,474.97 -7.75,468.56 -6.81,462.08 -7.54,452.80"/>
        <lane id=":J5_1_2" index="2" speed="13.89" length="32.01" width="4.00" shape="-6.01,483.99 -5.30,474.90 -3.84,468.34 -2.85,461.64 -3.60,452.13"/>
        <lane id=":J5_1_3" index="3" speed="13.89" length="32.01" width="4.00" shape="-6.01,483.99 -4.67,474.88 -1.83,468.22 0.52,461.32 0.34,451.45"/>
    </edge>
    <edge id=":J5_5" function="internal">
        <lane id=":J5_5_0" index="0" speed="12.95" length="8.98" shape="-6.01,483.99 -4.11,475.85 -3.65,475.42"/>
    </edge>
    <edge id=":J5_22" function="internal">
        <lane id=":J5_22_0" index="0" speed="12.95" length="31.45" shape="-3.65,475.42 1.75,470.30 11.56,467.35 25.32,466.99"/>
    </edge>
    <edge id=":J5_6" function="internal">
        <lane id=":J5_6_0" index="0" speed="8.44" length="16.69" width="4.50" shape="24.75,476.57 19.18,476.75 15.21,478.03 12.84,480.42 12.06,483.91"/>
        <lane id=":J5_6_1" index="1" speed="9.87" length="23.21" width="4.50" shape="24.94,473.38 17.32,473.65 11.88,475.50 8.63,478.92 7.56,483.93"/>
    </edge>
    <edge id=":J5_8" function="internal">
        <lane id=":J5_8_0" index="0" speed="13.89" length="45.16" shape="24.94,473.38 -20.09,472.28"/>
        <lane id=":J5_8_1" index="1" speed="13.89" length="45.16" shape="25.13,470.18 -20.14,469.08"/>
    </edge>
    <edge id=":J5_10" function="internal">
        <lane id=":J5_10_0" index="0" speed="13.29" length="33.85" width="4.00" shape="25.13,470.18 15.40,468.53 8.03,464.85 3.01,459.16 0.34,451.45"/>
    </edge>
    <edge id=":J5_11" function="internal">
        <lane id=":J5_11_0" index="0" speed="9.21" length="15.52" shape="17.80,448.47 19.03,453.64 20.76,457.39 22.98,459.71 25.70,460.60"/>
    </edge>
    <edge id=":J5_12" function="internal">
        <lane id=":J5_12_0" index="0" speed="13.89" length="35.25" width="4.50" shape="17.80,448.47 18.14,458.95 16.01,466.10 13.34,473.29 12.06,483.91"/>
        <lane id=":J5_12_1" index="1" speed="13.89" length="35.25" width="4.50" shape="13.37,449.23 13.67,459.50 11.52,466.49 8.84,473.53 7.56,483.93"/>
        <lane id=":J5_12_2" index="2" speed="13.89" length="35.25" width="4.50" shape="8.93,449.99 9.20,460.04 7.03,466.88 4.34,473.76 3.06,483.95"/>
        <lane id=":J5_12_3" index="3" speed="13.89" length="35.25" width="4.50" shape="4.49,450.74 4.73,460.58 2.54,467.27 -0.15,474.00 -1.44,483.97"/>
    </edge>
    <edge id=":J5_16" function="internal">
        <lane id=":J5_16_0" index="0" speed="11.99" length="9.93" shape="4.49,450.74 4.09,459.86 3.58,460.48"/>
    </edge>
    <edge id=":J5_23" function="internal">
        <lane id=":J5_23_0" index="0" speed="11.99" length="26.53" shape="3.58,460.48 -0.49,465.40 -8.75,468.19 -20.14,469.08"/>
    </edge>
    <edge id=":J5_17" function="internal">
        <lane id=":J5_17_0" index="0" speed="7.12" length="12.33" width="4.00" shape="-20.30,459.48 -16.07,459.05 -13.19,457.90 -11.66,456.04 -11.48,453.48"/>
    </edge>
    <edge id=":J5_18" function="internal">
        <lane id=":J5_18_0" index="0" speed="13.89" length="45.91" shape="-20.30,459.48 -8.92,459.93 2.61,461.21 14.14,462.71 25.51,463.79"/>
        <lane id=":J5_18_1" index="1" speed="13.89" length="45.91" shape="-20.25,462.68 -8.90,463.13 2.55,464.41 13.99,465.91 25.32,466.99"/>
    </edge>
    <edge id=":J5_20" function="internal">
        <lane id=":J5_20_0" index="0" speed="12.43" length="36.06" width="4.50" shape="-20.25,462.68 -10.09,463.87 -2.82,467.81 1.57,474.50 3.06,483.95"/>
        <lane id=":J5_20_1" index="1" speed="11.34" length="29.79" width="4.50" shape="-20.19,465.88 -12.02,466.90 -6.17,470.25 -2.64,475.94 -1.44,483.97"/>
    </edge>
    <edge id=":J8_0" function="internal">
        <lane id=":J8_0_0" index="0" speed="13.89" length="8.10" shape="-9.05,84.44 -9.04,82.30 -9.19,80.85 -9.39,79.39 -9.55,77.26"/>
        <lane id=":J8_0_1" index="1" speed="13.89" length="8.10" shape="-5.06,84.64 -5.16,82.40 -5.58,80.89 -6.07,79.38 -6.35,77.14"/>
        <lane id=":J8_0_2" index="2" speed="13.89" length="8.10" shape="-1.06,84.84 -1.28,82.49 -1.98,80.94 -2.74,79.39 -3.16,77.03"/>
        <lane id=":J8_0_3" index="3" speed="13.89" length="8.10" shape="-1.06,84.84 -0.78,82.48 -0.38,80.88 -0.04,79.28 0.04,76.91"/>
        <lane id=":J8_0_4" index="4" speed="13.89" length="8.10" shape="-1.06,84.84 -0.27,82.31 1.24,80.82 2.67,79.34 3.24,76.80"/>
    </edge>
    <edge id=":J9_0" function="internal">
        <lane id=":J9_0_0" index="0" speed="6.60" length="9.36" width="4.00" shape="15.01,219.02 12.39,219.41 10.54,220.49 9.45,222.26 9.12,224.72"/>
    </edge>
    <edge id=":J9_1" function="internal">
        <lane id=":J9_1_0" index="0" speed="13.89" length="11.25" width="4.00" shape="8.92,213.50 9.12,224.72"/>
        <lane id=":J9_1_1" index="1" speed="13.89" length="11.25" width="4.00" shape="4.92,213.55 5.12,224.80"/>
        <lane id=":J9_1_2" index="2" speed="13.89" length="11.25" width="4.00" shape="0.92,213.60 1.12,224.89"/>
    </edge>

    <edge id="-E0" from="J1" to="J0" priority="-1">
        <lane id="-E0_0" index="0" speed="13.89" length="5.00" shape="-5.55,4.10 -5.60,-0.90"/>
        <lane id="-E0_1" index="1" speed="13.89" length="5.00" shape="-2.35,4.07 -2.40,-0.93"/>
        <lane id="-E0_2" index="2" speed="13.89" length="5.00" shape="0.85,4.03 0.80,-0.96"/>
    </edge>
    <edge id="-E11" from="J12" to="J14" priority="-1" shape="-12.00,322.67 -32.93,318.08">
        <lane id="-E11_0" index="0" speed="13.89" length="17.36" shape="-17.01,326.49 -33.96,322.77"/>
        <lane id="-E11_1" index="1" speed="13.89" length="17.36" shape="-16.32,323.36 -33.27,319.64"/>
    </edge>
    <edge id="-E12" from="J12" to="J18" priority="-1" shape="8.50,326.95 29.66,326.22">
        <lane id="-E12_0" index="0" speed="13.89" length="6.43" shape="23.06,321.64 29.49,321.42"/>
        <lane id="-E12_1" index="1" speed="13.89" length="6.43" shape="23.17,324.84 29.60,324.62"/>
    </edge>
    <edge id="-E13" from="J19" to="J21" priority="-1">
        <lane id="-E13_0" index="0" speed="13.89" length="2.25" shape="22.12,302.86 24.36,302.75"/>
    </edge>
    <edge id="-E14" from="J5" to="J23" priority="-1">
        <lane id="-E14_0" index="0" speed="13.89" length="5.30" shape="25.70,460.60 30.98,460.91"/>
        <lane id="-E14_1" index="1" speed="13.89" length="5.30" shape="25.51,463.79 30.79,464.11"/>
        <lane id="-E14_2" index="2" speed="13.89" length="5.30" shape="25.32,466.99 30.60,467.30"/>
    </edge>
    <edge id="-E15" from="J24" to="J5" priority="-1">
        <lane id="-E15_0" index="0" speed="13.89" length="3.81" shape="-24.11,459.54 -20.30,459.48"/>
        <lane id="-E15_1" index="1" speed="13.89" length="3.81" shape="-24.06,462.74 -20.25,462.68"/>
        <lane id="-E15_2" index="2" speed="13.89" length="3.81" shape="-24.01,465.94 -20.19,465.88"/>
    </edge>
    <edge id="-E16" from="J25" to="J5" priority="-1" shape="-3.59,506.13 -3.76,484.01">
        <lane id="-E16_0" index="0" speed="13.89" length="22.17" width="4.50" shape="-13.54,506.21 -13.71,484.03"/>
        <lane id="-E16_1" index="1" speed="13.89" length="22.17" shape="-9.69,506.18 -9.86,484.01"/>
        <lane id="-E16_2" index="2" speed="13.89" length="22.17" width="4.50" shape="-5.84,506.15 -6.01,483.99"/>
    </edge>
    <edge id="-E4" from="J5" to="J12" priority="-1" shape="2.44,451.84 -2.47,423.15 -0.92,390.97 2.42,339.48">
        <lane id="-E4_0" index="0" speed="13.89" length="117.55" width="4.00" shape="-11.48,453.48 -16.53,424.00 -14.90,390.18 -11.32,335.06"/>
        <lane id="-E4_1" index="1" speed="13.89" length="117.55" width="4.00" shape="-7.54,452.80 -12.51,423.76 -10.90,390.41 -7.33,335.35"/>
        <lane id="-E4_2" index="2" speed="13.89" length="117.55" width="4.00" shape="-3.60,452.13 -8.49,423.52 -6.91,390.63 -3.34,335.63"/>
        <lane id="-E4_3" index="3" speed="13.89" length="117.55" width="4.00" shape="0.34,451.45 -4.48,423.27 -2.92,390.86 0.65,335.91"/>
    </edge>
    <edge id="-E40" from="J12" to="J17" priority="-1" shape="3.31,326.22 -0.23,255.08 -1.65,186.41">
        <lane id="-E40_0" index="0" speed="13.89" length="121.67" width="4.50" shape="-8.65,312.28 -11.47,255.48 -12.82,190.56"/>
        <lane id="-E40_1" index="1" speed="13.89" length="121.67" width="4.50" shape="-4.15,312.06 -6.98,255.32 -8.32,190.47"/>
        <lane id="-E40_2" index="2" speed="13.89" length="121.67" width="4.50" shape="0.34,311.83 -2.48,255.16 -3.82,190.38"/>
    </edge>
    <edge id="-E40.121" from="J17" to="J4" priority="-1" shape="-1.65,186.41 -1.76,148.05">
        <lane id="-E40.121_0" index="0" speed="13.89" length="34.40" width="4.00" shape="-15.66,182.52 -15.76,148.20"/>
        <lane id="-E40.121_1" index="1" speed="13.89" length="34.40" width="4.00" shape="-11.66,182.51 -11.76,148.08"/>
        <lane id="-E40.121_2" index="2" speed="13.89" length="34.40" width="4.00" shape="-7.66,182.50 -7.76,148.07"/>
        <lane id="-E40.121_3" index="3" speed="13.89" length="34.40" width="4.00" shape="-3.66,182.48 -3.76,148.05"/>
    </edge>
    <edge id="-E5" from="J4" to="J13" priority="-1" shape="16.99,128.54 25.55,127.83">
        <lane id="-E5_0" index="0" speed="13.89" length="1.47" width="4.00" shape="19.42,118.30 20.78,118.19"/>
        <lane id="-E5_1" index="1" speed="13.89" length="1.47" width="4.00" shape="19.65,122.30 21.11,122.18"/>
        <lane id="-E5_2" index="2" speed="13.89" length="1.47" width="4.00" shape="19.88,126.29 21.44,126.16"/>
    </edge>
    <edge id="-E5.14" from="J13" to="J6" priority="-1">
        <lane id="-E5.14_0" index="0" speed="13.89" length="26.28" width="4.00" shape="29.09,121.59 55.32,119.87"/>
        <lane id="-E5.14_1" index="1" speed="13.89" length="26.28" width="4.00" shape="29.35,125.58 55.58,123.86"/>
    </edge>
    <edge id="-E6" from="J7" to="J4" priority="-1" shape="-45.37,131.43 -12.69,129.21">
        <lane id="-E6_0" index="0" speed="13.89" length="23.13" width="4.00" shape="-45.78,125.44 -22.70,123.88"/>
        <lane id="-E6_1" index="1" speed="13.89" length="23.13" width="4.00" shape="-45.51,129.43 -22.44,127.87"/>
    </edge>
    <edge id="E0" from="J0" to="J1" priority="-1">
        <lane id="E0_0" index="0" speed="13.89" length="5.00" shape="7.20,-1.03 7.25,3.97"/>
        <lane id="E0_1" index="1" speed="13.89" length="5.00" shape="4.00,-1.00 4.05,4.00"/>
    </edge>
    <edge id="E1" from="J2" to="J1" priority="-1" shape="30.53,7.99 8.91,7.95">
        <lane id="E1_0" index="0" speed="13.89" length="11.69" width="4.00" shape="30.51,17.99 18.82,17.97"/>
        <lane id="E1_1" index="1" speed="13.89" length="11.69" width="4.00" shape="30.52,13.99 18.83,13.97"/>
        <lane id="E1_2" index="2" speed="13.89" length="11.69" width="4.00" shape="30.53,9.99 18.84,9.97"/>
    </edge>
    <edge id="E11" from="J14" to="J12" priority="-1" shape="-32.93,318.08 -12.24,322.60">
        <lane id="E11_0" index="0" speed="13.89" length="17.36" shape="-31.91,313.39 -14.95,317.10"/>
        <lane id="E11_1" index="1" speed="13.89" length="17.36" shape="-32.59,316.52 -15.63,320.22"/>
    </edge>
    <edge id="E12" from="J18" to="J12" priority="-1" shape="29.66,326.22 8.27,326.85">
        <lane id="E12_0" index="0" speed="13.89" length="6.42" shape="29.80,331.02 23.39,331.21"/>
        <lane id="E12_1" index="1" speed="13.89" length="6.42" shape="29.71,327.82 23.28,328.01"/>
    </edge>
    <edge id="E13" from="J21" to="J19" priority="-1">
        <lane id="E13_0" index="0" speed="13.89" length="2.25" shape="24.52,305.95 22.27,306.06"/>
    </edge>
    <edge id="E14" from="J23" to="J5" priority="-1">
        <lane id="E14_0" index="0" speed="13.89" length="5.30" shape="30.04,476.89 24.75,476.57"/>
        <lane id="E14_1" index="1" speed="13.89" length="5.30" shape="30.23,473.69 24.94,473.38"/>
        <lane id="E14_2" index="2" speed="13.89" length="5.30" shape="30.42,470.50 25.13,470.18"/>
    </edge>
    <edge id="E15" from="J5" to="J24" priority="-1">
        <lane id="E15_0" index="0" speed="13.89" length="3.81" shape="-20.04,475.48 -23.85,475.54"/>
        <lane id="E15_1" index="1" speed="13.89" length="3.81" shape="-20.09,472.28 -23.90,472.34"/>
        <lane id="E15_2" index="2" speed="13.89" length="3.81" shape="-20.14,469.08 -23.95,469.14"/>
    </edge>
    <edge id="E16" from="J5" to="J25" priority="-1" shape="-3.69,483.98 -3.59,506.13">
        <lane id="E16_0" index="0" speed="13.89" length="22.15" width="4.50" shape="12.06,483.91 12.16,506.06"/>
        <lane id="E16_1" index="1" speed="13.89" length="22.15" width="4.50" shape="7.56,483.93 7.66,506.08"/>
        <lane id="E16_2" index="2" speed="13.89" length="22.15" width="4.50" shape="3.06,483.95 3.16,506.10"/>
        <lane id="E16_3" index="3" speed="13.89" length="22.15" width="4.50" shape="-1.44,483.97 -1.34,506.12"/>
    </edge>
    <edge id="E2" from="J1" to="J3" priority="-1">
        <lane id="E2_0" index="0" speed="13.89" length="52.99" width="4.00" shape="12.97,24.03 14.92,76.98"/>
        <lane id="E2_1" index="1" speed="13.89" length="52.99" width="4.00" shape="8.97,24.18 10.92,77.13"/>
        <lane id="E2_2" index="2" speed="13.89" length="52.99" width="4.00" shape="4.97,24.33 6.93,77.28"/>
    </edge>
    <edge id="E3" from="J3" to="J4" priority="-1" shape="1.11,84.03 -0.24,108.24">
        <lane id="E3_0" index="0" speed="13.89" length="24.10" shape="15.48,85.05 14.14,109.08"/>
        <lane id="E3_1" index="1" speed="13.89" length="24.10" shape="12.28,84.87 10.94,108.92"/>
        <lane id="E3_2" index="2" speed="13.89" length="24.10" shape="9.09,84.69 7.74,108.75"/>
        <lane id="E3_3" index="3" speed="13.89" length="24.10" shape="5.89,84.51 4.55,108.59"/>
        <lane id="E3_4" index="4" speed="13.89" length="24.10" shape="2.70,84.34 1.35,108.42"/>
    </edge>
    <edge id="E4" from="J4" to="J9" priority="-1" shape="-1.88,148.03 -1.03,217.65">
        <lane id="E4_0" index="0" speed="13.89" length="65.60" width="4.00" shape="8.12,147.90 8.92,213.50"/>
        <lane id="E4_1" index="1" speed="13.89" length="65.60" width="4.00" shape="4.12,147.95 4.92,213.55"/>
        <lane id="E4_2" index="2" speed="13.89" length="65.60" width="4.00" shape="0.12,148.00 0.92,213.60"/>
    </edge>
    <edge id="E4.124" from="J15" to="J19" priority="-1" shape="0.57,272.10 1.70,295.95 2.20,305.42">
        <lane id="E4.124_0" index="0" speed="13.89" length="22.19" width="4.00" shape="14.74,275.43 15.68,295.27 15.80,297.57"/>
        <lane id="E4.124_1" index="1" speed="13.89" length="22.19" width="4.00" shape="10.75,275.62 11.69,295.46 11.81,297.78"/>
        <lane id="E4.124_2" index="2" speed="13.89" length="22.19" width="4.00" shape="6.75,275.81 7.69,295.66 7.82,297.99"/>
        <lane id="E4.124_3" index="3" speed="13.89" length="22.19" width="4.00" shape="2.76,276.00 3.70,295.85 3.82,298.20"/>
    </edge>
    <edge id="E4.150" from="J12" to="J26" priority="-1" shape="3.31,326.22 -1.27,390.87 -1.20,393.16">
        <lane id="E4.150_0" index="0" speed="13.89" length="67.47" width="4.50" shape="13.84,336.85 9.99,391.10 10.38,403.71"/>
        <lane id="E4.150_1" index="1" speed="13.89" length="67.47" width="4.50" shape="9.35,336.53 5.49,391.01 5.88,403.85"/>
        <lane id="E4.150_2" index="2" speed="13.89" length="67.47" width="4.50" shape="4.86,336.21 0.98,390.92 1.38,403.99"/>
    </edge>
    <edge id="E4.157" from="J19" to="J12" priority="-1">
        <lane id="E4.157_0" index="0" speed="13.89" length="0.20" width="4.00" shape="16.54,311.39 16.55,311.59"/>