<?xml version="1.0" encoding="UTF-8"?>

<!-- generated on 2022-06-01 15:29:44 by Eclipse SUMO netedit Version 1.13.0
<configuration xmlns:xsi="http://www.w3.org/2001/XMLSchema-instance" xsi:noNamespaceSchemaLocation="http://sumo.dlr.de/xsd/netconvertConfiguration.xsd">

    <input>
        <sumo-net-file value="scenarios/NGSIM/lankershim/map.net.xml"/>
    </input>

    <output>
        <output-file value="scenarios/NGSIM/lankershim/map.net.xml"/>
    </output>

    <processing>
        <geometry.min-radius.fix.railways value="false"/>
        <geometry.max-grade.fix value="false"/>
        <offset.disable-normalization value="true"/>
        <lefthand value="false"/>
    </processing>

    <junctions>
        <no-internal-links value="true"/>
        <no-turnarounds value="true"/>
        <junctions.corner-detail value="5"/>
        <junctions.limit-turn-speed value="5.5"/>
        <rectangular-lane-cut value="false"/>
    </junctions>

    <pedestrian>
        <walkingareas value="false"/>
    </pedestrian>

    <report>
        <aggregate-warnings value="5"/>
    </report>

</configuration>
-->

<net version="1.9" junctionCornerDetail="5" limitTurnSpeed="5.50" xmlns:xsi="http://www.w3.org/2001/XMLSchema-instance" xsi:noNamespaceSchemaLocation="http://sumo.dlr.de/xsd/net_file.xsd">

    <location netOffset="0.00,0.00" convBoundary="-45.37,-0.98,55.06,506.13" origBoundary="-10000000000.00,-10000000000.00,10000000000.00,10000000000.00" projParameter="!"/>

    <edge id="-E0" from="J1" to="J0" priority="-1">
        <lane id="-E0_0" index="0" speed="13.89" length="13.55" shape="-5.55,4.10 -5.60,-0.90"/>
        <lane id="-E0_1" index="1" speed="13.89" length="13.55" shape="-2.35,4.07 -2.40,-0.93"/>
        <lane id="-E0_2" index="2" speed="13.89" length="13.55" shape="0.85,4.03 0.80,-0.96"/>
    </edge>
    <edge id="-E11" from="J12" to="J14" priority="-1" shape="-12.00,322.67 -32.93,318.08">
        <lane id="-E11_0" index="0" speed="13.89" length="37.14" shape="-17.01,326.49 -33.96,322.77"/>
        <lane id="-E11_1" index="1" speed="13.89" length="37.14" shape="-16.32,323.36 -33.27,319.64"/>
    </edge>
    <edge id="-E12" from="J12" to="J18" priority="-1" shape="8.50,326.95 29.66,326.22">
        <lane id="-E12_0" index="0" speed="13.89" length="26.36" shape="23.06,321.64 29.49,321.42"/>
        <lane id="-E12_1" index="1" speed="13.89" length="26.36" shape="23.17,324.84 29.60,324.62"/>
    </edge>
    <edge id="-E13" from="J19" to="J21" priority="-1">
        <lane id="-E13_0" index="0" speed="13.89" length="22.27" shape="22.12,302.86 24.36,302.75"/>
    </edge>
    <edge id="-E14" from="J5" to="J23" priority="-1">
        <lane id="-E14_0" index="0" speed="13.89" length="29.68" shape="25.70,460.60 30.98,460.91"/>
        <lane id="-E14_1" index="1" speed="13.89" length="29.68" shape="25.51,463.79 30.79,464.11"/>
        <lane id="-E14_2" index="2" speed="13.89" length="29.68" shape="25.32,466.99 30.60,467.30"/>
    </edge>
    <edge id="-E15" from="J24" to="J5" priority="-1">
        <lane id="-E15_0" index="0" speed="13.89" length="24.86" shape="-24.11,459.54 -20.30,459.48"/>
        <lane id="-E15_1" index="1" speed="13.89" length="24.86" shape="-24.06,462.74 -20.25,462.68"/>
        <lane id="-E15_2" index="2" speed="13.89" length="24.86" shape="-24.01,465.94 -20.19,465.88"/>
    </edge>
    <edge id="-E16" from="J25" to="J5" priority="-1" shape="-3.59,506.13 -3.76,484.01">
        <lane id="-E16_0" index="0" speed="13.89" length="39.62" width="4.50" shape="-13.54,506.21 -13.71,484.03"/>
        <lane id="-E16_1" index="1" speed="13.89" length="39.62" shape="-9.69,506.18 -9.86,484.01"/>
        <lane id="-E16_2" index="2" speed="13.89" length="39.62" width="4.50" shape="-5.84,506.15 -6.01,483.99"/>
    </edge>
    <edge id="-E4" from="J5" to="J12" priority="-1" shape="2.44,451.84 -2.47,423.15 -0.92,390.97 2.42,339.48">
        <lane id="-E4_0" index="0" speed="13.89" length="141.57" width="4.00" shape="-11.48,453.48 -16.53,424.00 -14.90,390.18 -11.32,335.06"/>
        <lane id="-E4_1" index="1" speed="13.89" length="141.57" width="4.00" shape="-7.54,452.80 -12.51,423.76 -10.90,390.41 -7.33,335.35"/>
        <lane id="-E4_2" index="2" speed="13.89" length="141.57" width="4.00" shape="-3.60,452.13 -8.49,423.52 -6.91,390.63 -3.34,335.63"/>
        <lane id="-E4_3" index="3" speed="13.89" length="141.57" width="4.00" shape="0.34,451.45 -4.48,423.27 -2.92,390.86 0.65,335.91"/>
    </edge>
    <edge id="-E40" from="J12" to="J17" priority="-1" shape="3.31,326.22 -0.23,255.08 -1.94,186.41">
        <lane id="-E40_0" index="0" speed="13.89" length="139.92" width="4.50" shape="-8.65,312.28 -11.47,255.50 -13.09,190.69"/>
        <lane id="-E40_1" index="1" speed="13.89" length="139.92" width="4.50" shape="-4.15,312.06 -6.98,255.33 -8.59,190.58"/>
        <lane id="-E40_2" index="2" speed="13.89" length="139.92" width="4.50" shape="0.34,311.83 -2.48,255.16 -4.09,190.46"/>
    </edge>
    <edge id="-E40.121" from="J17" to="J4" priority="-1" shape="-1.94,186.41 -2.80,151.66 -2.67,146.90">
        <lane id="-E40.121_0" index="0" speed="13.89" length="81.51" width="4.00" shape="-16.03,182.76 -16.80,151.64 -16.63,145.41"/>
        <lane id="-E40.121_1" index="1" speed="13.89" length="81.51" width="4.00" shape="-12.04,182.66 -12.80,151.65 -12.65,145.93"/>
        <lane id="-E40.121_2" index="2" speed="13.89" length="81.51" width="4.00" shape="-8.04,182.56 -8.80,151.65 -8.66,146.45"/>
        <lane id="-E40.121_3" index="3" speed="13.89" length="81.51" width="4.00" shape="-4.04,182.46 -4.80,151.66 -4.67,146.97"/>
    </edge>
    <edge id="-E5" from="J4" to="J6" priority="-1" shape="14.32,125.49 55.06,122.86">
        <lane id="-E5_0" index="0" speed="13.89" length="61.02" width="4.00" shape="22.56,118.95 54.67,116.87"/>
        <lane id="-E5_1" index="1" speed="13.89" length="61.02" width="4.00" shape="22.82,122.94 54.93,120.86"/>
    </edge>
    <edge id="-E6" from="J7" to="J4" priority="-1" shape="-45.37,131.43 -12.84,128.50">
        <lane id="-E6_0" index="0" speed="13.89" length="57.22" width="4.00" shape="-45.91,125.45 -23.62,123.45"/>
        <lane id="-E6_1" index="1" speed="13.89" length="57.22" width="4.00" shape="-45.55,129.44 -23.27,127.43"/>
    </edge>
    <edge id="E0" from="J0" to="J1" priority="-1">
        <lane id="E0_0" index="0" speed="13.89" length="13.55" shape="7.20,-1.03 7.25,3.97"/>
        <lane id="E0_1" index="1" speed="13.89" length="13.55" shape="4.00,-1.00 4.05,4.00"/>
    </edge>
    <edge id="E1" from="J2" to="J1" priority="-1" shape="30.53,7.99 8.91,7.95">
        <lane id="E1_0" index="0" speed="13.89" length="28.63" width="4.00" shape="30.51,17.99 18.82,17.97"/>
        <lane id="E1_1" index="1" speed="13.89" length="28.63" width="4.00" shape="30.52,13.99 18.83,13.97"/>
        <lane id="E1_2" index="2" speed="13.89" length="28.63" width="4.00" shape="30.53,9.99 18.84,9.97"/>
    </edge>
    <edge id="E11" from="J14" to="J12" priority="-1" shape="-32.93,318.08 -12.24,322.60">
        <lane id="E11_0" index="0" speed="13.89" length="37.14" shape="-31.91,313.39 -14.95,317.10"/>
        <lane id="E11_1" index="1" speed="13.89" length="37.14" shape="-32.59,316.52 -15.63,320.22"/>
    </edge>
    <edge id="E12" from="J18" to="J12" priority="-1" shape="29.66,326.22 8.27,326.85">
        <lane id="E12_0" index="0" speed="13.89" length="26.35" shape="29.80,331.02 23.39,331.21"/>
        <lane id="E12_1" index="1" speed="13.89" length="26.35" shape="29.71,327.82 23.28,328.01"/>
    </edge>
    <edge id="E13" from="J21" to="J19" priority="-1">
        <lane id="E13_0" index="0" speed="13.89" length="22.27" shape="24.52,305.95 22.27,306.06"/>
    </edge>
    <edge id="E14" from="J23" to="J5" priority="-1">
        <lane id="E14_0" index="0" speed="13.89" length="29.68" shape="30.04,476.89 24.75,476.57"/>
        <lane id="E14_1" index="1" speed="13.89" length="29.68" shape="30.23,473.69 24.94,473.38"/>
        <lane id="E14_2" index="2" speed="13.89" length="29.68" shape="30.42,470.50 25.13,470.18"/>
    </edge>
    <edge id="E15" from="J5" to="J24" priority="-1">
        <lane id="E15_0" index="0" speed="13.89" length="24.86" shape="-20.04,475.48 -23.85,475.54"/>
        <lane id="E15_1" index="1" speed="13.89" length="24.86" shape="-20.09,472.28 -23.90,472.34"/>
        <lane id="E15_2" index="2" speed="13.89" length="24.86" shape="-20.14,469.08 -23.95,469.14"/>
    </edge>
    <edge id="E16" from="J5" to="J25" priority="-1" shape="-3.69,483.98 -3.59,506.13">
        <lane id="E16_0" index="0" speed="13.89" length="39.60" width="4.50" shape="12.06,483.91 12.16,506.06"/>
        <lane id="E16_1" index="1" speed="13.89" length="39.60" width="4.50" shape="7.56,483.93 7.66,506.08"/>
        <lane id="E16_2" index="2" speed="13.89" length="39.60" width="4.50" shape="3.06,483.95 3.16,506.10"/>
        <lane id="E16_3" index="3" speed="13.89" length="39.60" width="4.50" shape="-1.44,483.97 -1.34,506.12"/>
    </edge>
    <edge id="E2" from="J1" to="J3" priority="-1">
        <lane id="E2_0" index="0" speed="13.89" length="65.12" width="4.00" shape="12.97,24.03 14.90,76.39"/>
        <lane id="E2_1" index="1" speed="13.89" length="65.12" width="4.00" shape="8.97,24.18 10.90,76.54"/>
        <lane id="E2_2" index="2" speed="13.89" length="65.12" width="4.00" shape="4.97,24.33 6.91,76.68"/>
    </edge>
    <edge id="E3" from="J3" to="J4" priority="-1" shape="1.11,84.03 1.94,104.90">
        <lane id="E3_0" index="0" speed="13.89" length="28.47" shape="15.53,84.35 16.32,104.06"/>
        <lane id="E3_1" index="1" speed="13.89" length="28.47" shape="12.34,84.48 13.12,104.28"/>
        <lane id="E3_2" index="2" speed="13.89" length="28.47" shape="9.14,84.61 9.93,104.58"/>
        <lane id="E3_3" index="3" speed="13.89" length="28.47" shape="5.94,84.74 6.74,104.71"/>
        <lane id="E3_4" index="4" speed="13.89" length="28.47" shape="2.74,84.86 3.54,104.93"/>
    </edge>
    <edge id="E4" from="J4" to="J9" priority="-1" shape="-2.03,147.32 -2.63,151.91 -1.03,217.65">
        <lane id="E4_0" index="0" speed="13.89" length="112.73" width="4.00" shape="7.89,148.62 7.39,152.44 8.87,213.53"/>
        <lane id="E4_1" index="1" speed="13.89" length="112.73" width="4.00" shape="3.92,148.10 3.38,152.23 4.87,213.62"/>
        <lane id="E4_2" index="2" speed="13.89" length="112.73" width="4.00" shape="-0.05,147.58 -0.63,152.02 0.87,213.72"/>
    </edge>
    <edge id="E4.124" from="J15" to="J19" priority="-1" shape="0.57,272.10 1.70,295.95 2.20,305.42">
        <lane id="E4.124_0" index="0" speed="13.89" length="33.36" width="4.00" shape="14.74,275.43 15.68,295.27 15.80,297.57"/>
        <lane id="E4.124_1" index="1" speed="13.89" length="33.36" width="4.00" shape="10.75,275.62 11.69,295.46 11.81,297.78"/>
        <lane id="E4.124_2" index="2" speed="13.89" length="33.36" width="4.00" shape="6.75,275.81 7.69,295.66 7.82,297.99"/>
        <lane id="E4.124_3" index="3" speed="13.89" length="33.36" width="4.00" shape="2.76,276.00 3.70,295.85 3.82,298.20"/>
    </edge>
    <edge id="E4.150" from="J12" to="J26" priority="-1" shape="3.31,326.22 -1.27,390.87 -1.20,393.16">
        <lane id="E4.150_0" index="0" speed="13.89" length="89.15" width="4.50" shape="13.84,336.85 9.99,391.10 10.38,403.71"/>
        <lane id="E4.150_1" index="1" speed="13.89" length="89.15" width="4.50" shape="9.35,336.53 5.49,391.01 5.88,403.85"/>
        <lane id="E4.150_2" index="2" speed="13.89" length="89.15" width="4.50" shape="4.86,336.21 0.98,390.92 1.38,403.99"/>
    </edge>
    <edge id="E4.157" from="J19" to="J12" priority="-1">
        <lane id="E4.157_0" index="0" speed="13.89" length="20.83" width="4.00" shape="16.54,311.39 16.55,311.59"/>
        <lane id="E4.157_1" index="1" speed="13.89" length="20.83" width="4.00" shape="12.54,311.59 12.55,311.79"/>
        <lane id="E4.157_2" index="2" speed="13.89" length="20.83" width="4.00" shape="8.55,311.80 8.56,312.00"/>
        <lane id="E4.157_3" index="3" speed="13.89" length="20.83" width="4.00" shape="4.55,312.01 4.56,312.21"/>
    </edge>
    <edge id="E4.217" from="J26" to="J5" priority="-1" shape="-2.36,423.32 3.54,458.70">
        <lane id="E4.217_0" index="0" speed="13.89" length="57.61" width="4.50" shape="13.18,420.73 17.80,448.47"/>
        <lane id="E4.217_1" index="1" speed="13.89" length="57.61" width="4.50" shape="8.74,421.47 13.37,449.23"/>
        <lane id="E4.217_2" index="2" speed="13.89" length="57.61" width="4.50" shape="4.30,422.21 8.93,449.99"/>
        <lane id="E4.217_3" index="3" speed="13.89" length="57.61" width="4.50" shape="-0.14,422.95 4.49,450.74"/>
    </edge>
    <edge id="E4.73" from="J9" to="J15" priority="-1" shape="-1.03,217.65 -0.24,255.01 0.57,272.10">
        <lane id="E4.73_0" index="0" speed="13.89" length="54.48" width="4.00" shape="9.12,224.72 9.75,254.67 10.37,267.63"/>
        <lane id="E4.73_1" index="1" speed="13.89" length="54.48" width="4.00" shape="5.12,224.80 5.76,254.80 6.37,267.82"/>
        <lane id="E4.73_2" index="2" speed="13.89" length="54.48" width="4.00" shape="1.12,224.89 1.76,254.94 2.38,268.01"/>
    </edge>
    <edge id="E5" from="J6" to="J4" priority="-1" shape="55.06,122.86 14.54,125.40">
        <lane id="E5_0" index="0" speed="13.89" length="60.98" width="4.00" shape="55.69,132.84 23.59,134.85"/>
        <lane id="E5_1" index="1" speed="13.89" length="60.98" width="4.00" shape="55.44,128.85 23.33,130.86"/>
        <lane id="E5_2" index="2" speed="13.89" length="60.98" width="4.00" shape="55.19,124.86 23.07,126.87"/>
    </edge>
    <edge id="E6" from="J4" to="J7" priority="-1" shape="-13.08,128.59 -45.37,131.43">
        <lane id="E6_0" index="0" speed="13.89" length="57.25" width="4.00" shape="-22.57,135.45 -44.84,137.41"/>
        <lane id="E6_1" index="1" speed="13.89" length="57.25" width="4.00" shape="-22.92,131.46 -45.19,133.42"/>
    </edge>
    <edge id="E7" from="J4" to="J8" priority="-1" shape="1.93,105.04 1.48,98.44 0.99,83.86">
        <lane id="E7_0" index="0" speed="13.89" length="21.33" width="4.00" shape="-8.05,105.72 -8.51,98.95 -8.97,85.30"/>
        <lane id="E7_1" index="1" speed="13.89" length="21.33" width="4.00" shape="-4.06,105.45 -4.51,98.74 -4.97,85.16"/>
        <lane id="E7_2" index="2" speed="13.89" length="21.33" width="4.00" shape="-0.07,105.18 -0.52,98.54 -0.97,85.03"/>
    </edge>
    <edge id="E8" from="J8" to="J1" priority="-1" shape="4.88,77.91 2.54,12.57">
        <lane id="E8_0" index="0" speed="13.89" length="72.31" shape="-9.55,77.32 -11.43,24.93"/>
        <lane id="E8_1" index="1" speed="13.89" length="72.31" shape="-6.35,77.21 -8.23,24.81"/>
        <lane id="E8_2" index="2" speed="13.89" length="72.31" shape="-3.15,77.09 -5.03,24.70"/>
        <lane id="E8_3" index="3" speed="13.89" length="72.31" shape="0.04,76.98 -1.83,24.58"/>
        <lane id="E8_4" index="4" speed="13.89" length="72.31" shape="3.24,76.86 1.36,24.46"/>
    </edge>
    <edge id="E9" from="J10" to="J9" priority="-1">
        <lane id="E9_0" index="0" speed="13.89" length="23.54" shape="22.53,218.91 15.01,219.02"/>
    </edge>

    <junction id="J0" type="dead_end" x="2.40" y="-0.98" incLanes="-E0_0 -E0_1 -E0_2" intLanes="" shape="2.40,-0.98 -7.20,-0.88 2.40,-0.98"/>
    <junction id="J1" type="priority" x="2.54" y="12.57" incLanes="E8_0 E8_1 E8_2 E8_3 E8_4 E1_0 E1_1 E1_2 E0_0 E0_1" intLanes="" shape="-13.03,24.99 14.97,23.96 15.33,21.74 15.86,20.96 16.61,20.41 17.60,20.08 18.82,19.97 18.84,7.97 15.80,7.85 13.31,7.51 11.37,6.95 9.98,6.17 9.14,5.17 8.85,3.95 -7.15,4.12 -7.57,8.67 -8.71,11.94 -10.19,14.56 -11.65,17.17 -12.72,20.43">
        <request index="0" response="000000000" foes="001110000"/>
        <request index="1" response="000000000" foes="001110000"/>
        <request index="2" response="000000000" foes="001110000"/>
        <request index="3" response="000000000" foes="000000000"/>
        <request index="4" response="110000111" foes="110000111"/>
        <request index="5" response="110000111" foes="110000111"/>
        <request index="6" response="110000111" foes="110000111"/>
        <request index="7" response="000000000" foes="001110000"/>
        <request index="8" response="000000000" foes="001110000"/>
    </junction>
    <junction id="J10" type="dead_end" x="22.51" y="217.31" incLanes="" intLanes="" shape="22.51,217.31 22.56,220.51"/>
    <junction id="J12" type="priority" x="3.31" y="326.22" incLanes="E12_0 E12_1 E4.157_0 E4.157_1 E4.157_2 E4.157_3 E11_0 E11_1 -E4_0 -E4_1 -E4_2 -E4_3" intLanes="" shape="23.45,332.81 23.01,320.05 20.73,319.09 19.89,317.84 19.24,316.05 18.78,313.75 18.52,310.93 -10.89,312.39 -11.22,314.52 -11.72,315.17 -12.45,315.56 -13.42,315.68 -14.60,315.53 -17.35,328.05 -14.94,329.24 -14.13,330.25 -13.60,331.53 -13.32,333.09 -13.32,334.92 16.08,337.00 17.02,334.76 18.06,333.96 19.48,333.37 21.28,332.98">
        <request index="0"  response="000000000011100000" foes="000000000011100000"/>
        <request index="1"  response="111110000111100000" foes="111111000111100000"/>
        <request index="2"  response="111110000111100000" foes="111111000111100000"/>
        <request index="3"  response="111100110111100000" foes="111100110111100000"/>
        <request index="4"  response="000000000000000000" foes="000000110000000000"/>
        <request index="5"  response="000000000000000000" foes="100001110000001111"/>
        <request index="6"  response="000000000000000000" foes="100001110000001111"/>
        <request index="7"  response="000000000000000000" foes="100001110000001111"/>
        <request index="8"  response="011100000000000000" foes="011101110000001110"/>
        <request index="9"  response="011100000000000000" foes="011100000000000000"/>
        <request index="10" response="111100000111110000" foes="111100000111111000"/>
        <request index="11" response="111100000111110000" foes="111100000111111000"/>
        <request index="12" response="111100000111100110" foes="111100000111100110"/>
        <request index="13" response="000000000000000000" foes="000000000000000110"/>
        <request index="14" response="000000000000000000" foes="000001111100001110"/>
        <request index="15" response="000000000000000000" foes="000001111100001110"/>
        <request index="16" response="000000000000000000" foes="000001111100001110"/>
        <request index="17" response="000000000011100000" foes="000001110011101110"/>
    </junction>
    <junction id="J14" type="dead_end" x="-32.93" y="318.08" incLanes="-E11_0 -E11_1" intLanes="" shape="-32.93,318.08 -31.56,311.83 -34.30,324.33"/>
    <junction id="J15" type="priority" x="0.57" y="272.10" incLanes="E4.73_0 E4.73_1 E4.73_2" intLanes="" shape="0.76,276.10 16.74,275.34 15.56,272.32 13.55,270.55 12.75,269.36 12.37,267.54 0.38,268.10">
        <request index="0" response="0000" foes="0000"/>
        <request index="1" response="0000" foes="0000"/>
        <request index="2" response="0000" foes="0000"/>
        <request index="3" response="0000" foes="0000"/>
    </junction>
    <junction id="J17" type="priority" x="-1.94" y="186.41" incLanes="-E40_0 -E40_1 -E40_2" intLanes="" shape="-15.34,190.74 -1.84,190.41 -2.04,182.41 -18.03,182.81 -17.31,185.80 -16.06,187.76 -15.57,188.99">
        <request index="0" response="0000" foes="0000"/>
        <request index="1" response="0000" foes="0000"/>
        <request index="2" response="0000" foes="0000"/>
        <request index="3" response="0000" foes="0000"/>
    </junction>
    <junction id="J18" type="dead_end" x="29.66" y="326.22" incLanes="-E12_0 -E12_1" intLanes="" shape="29.66,326.22 29.85,332.62 29.44,319.82"/>
    <junction id="J19" type="priority" x="2.20" y="305.42" incLanes="E13_0 E4.124_0 E4.124_1 E4.124_2 E4.124_3" intLanes="" shape="2.59,312.69 18.57,311.84 18.89,309.60 19.40,308.80 20.15,308.20 21.13,307.82 22.35,307.65 22.04,301.26 19.78,300.93 18.97,300.41 18.37,299.66 17.98,298.68 17.80,297.46 1.82,298.30">
        <request index="0" response="11110000" foes="11110000"/>
        <request index="1" response="11110000" foes="11110000"/>
        <request index="2" response="11110000" foes="11110000"/>
        <request index="3" response="00000000" foes="00000000"/>
        <request index="4" response="00000000" foes="00000111"/>
        <request index="5" response="00000000" foes="00000111"/>
        <request index="6" response="00000000" foes="00000111"/>
        <request index="7" response="00000000" foes="00000111"/>
    </junction>
    <junction id="J2" type="dead_end" x="30.53" y="7.99" incLanes="" intLanes="" shape="30.53,7.99 30.51,19.99"/>
    <junction id="J21" type="dead_end" x="24.44" y="304.35" incLanes="-E13_0" intLanes="" shape="24.44,304.35 24.29,301.15 24.44,304.35"/>
    <junction id="J23" type="dead_end" x="30.51" y="468.90" incLanes="-E14_0 -E14_1 -E14_2" intLanes="" shape="30.51,468.90 31.08,459.32 30.51,468.90"/>
    <junction id="J24" type="dead_end" x="-23.98" y="467.54" incLanes="E15_0 E15_1 E15_2" intLanes="" shape="-23.98,467.54 -23.83,477.14 -23.98,467.54"/>
    <junction id="J25" type="dead_end" x="-3.59" y="506.13" incLanes="E16_0 E16_1 E16_2 E16_3" intLanes="" shape="-3.59,506.13 -15.79,506.22 14.41,506.05"/>
    <junction id="J26" type="priority" x="-1.20" y="393.16" incLanes="E4.150_0 E4.150_1 E4.150_2" intLanes="" shape="-2.36,423.32 15.39,420.36 14.72,416.81 14.12,414.19 13.59,412.04 13.15,409.89 12.82,407.24 12.63,403.65 -0.87,404.06 -0.99,408.18 -1.48,411.23 -2.10,413.74 -2.61,416.24 -2.78,419.26">
        <request index="0" response="0000" foes="0000"/>
        <request index="1" response="0000" foes="0000"/>
        <request index="2" response="0000" foes="0000"/>
        <request index="3" response="0000" foes="0000"/>
    </junction>
    <junction id="J3" type="priority" x="4.94" y="77.65" incLanes="E2_0 E2_1 E2_2" intLanes="" shape="1.15,84.93 17.13,84.29 16.90,76.31 4.91,76.76 3.97,79.87 2.08,81.81 1.37,83.07">
        <request index="0" response="000" foes="000"/>
        <request index="1" response="000" foes="000"/>
        <request index="2" response="000" foes="000"/>
    </junction>
    <junction id="J4" type="priority" x="1.94" y="105.17" incLanes="E5_0 E5_1 E5_2 E3_0 E3_1 E3_2 E3_3 E3_4 -E6_0 -E6_1 -E40.121_0 -E40.121_1 -E40.121_2 -E40.121_3" intLanes="" shape="23.72,136.85 22.43,116.95 20.16,115.62 19.31,113.83 18.65,111.29 18.19,107.99 17.91,103.95 -10.04,105.86 -10.15,110.25 -11.14,113.93 -12.99,116.89 -15.72,119.13 -19.32,120.65 -23.80,121.45 -22.39,137.44 -20.20,138.14 -19.46,139.19 -18.95,140.71 -18.67,142.70 -18.63,145.15 9.87,148.88 10.66,145.42 12.06,142.54 14.07,140.24 16.68,138.53 19.90,137.40">
        <request index="0"  response="0000000000111000000" foes="0000000000111000000"/>
        <request index="1"  response="0000000000111000000" foes="0000000000111000000"/>
        <request index="2"  response="1111100001111000000" foes="1111110001111000000"/>
        <request index="3"  response="1111100001111000000" foes="1111110001111000000"/>
        <request index="4"  response="1111001101111000000" foes="1111001101111000000"/>
        <request index="5"  response="0000000000000000000" foes="0000001100000000000"/>
        <request index="6"  response="0000000000000000000" foes="1000011100000011111"/>
        <request index="7"  response="0000000000000000000" foes="1000011100000011111"/>
        <request index="8"  response="0000000000000000000" foes="1000011100000011111"/>
        <request index="9"  response="0111000000000000000" foes="0111011100000011100"/>
        <request index="10" response="0111000000000000000" foes="0111000000000000000"/>
        <request index="11" response="1111000001111100000" foes="1111000001111110000"/>
        <request index="12" response="1111000001111100000" foes="1111000001111110000"/>
        <request index="13" response="1111000001111001100" foes="1111000001111001100"/>
        <request index="14" response="0000000000000000000" foes="0000000000000001100"/>
        <request index="15" response="0000000000000000000" foes="0000011111000011100"/>
        <request index="16" response="0000000000000000000" foes="0000011111000011100"/>
        <request index="17" response="0000000000000000000" foes="0000011111000011100"/>
        <request index="18" response="0000000000111000000" foes="0000011100111011100"/>
    </junction>
    <junction id="J5" type="priority" x="0.88" y="467.14" incLanes="-E16_0 -E16_1 -E16_2 E14_0 E14_1 E14_2 E4.217_0 E4.217_1 E4.217_2 E4.217_3 -E15_0 -E15_1 -E15_2" intLanes="" shape="-15.96,484.04 14.31,483.90 15.45,480.44 16.88,479.29 18.89,478.53 21.49,478.16 24.65,478.17 25.79,459.00 23.38,457.68 22.35,456.16 21.45,454.05 20.67,451.36 20.02,448.09 -13.45,453.82 -13.92,456.02 -14.83,456.80 -16.21,457.37 -18.04,457.73 -20.32,457.88 -20.01,477.08 -17.79,477.82 -17.00,478.78 -16.43,480.14 -16.09,481.89">
        <request index="0"  response="0000000000000000000000" foes="0000000000000000000000"/>
        <request index="1"  response="0000000000000000000000" foes="1111110000011100000000"/>
        <request index="2"  response="0000000000000000000000" foes="1111110000011100000000"/>
        <request index="3"  response="0000000000000000000000" foes="1111110000011100000000"/>
        <request index="4"  response="0000000000000000000000" foes="1111110000011100000000"/>
        <request index="5"  response="0000001111000000000000" foes="1111001111011100000000"/>
        <request index="6"  response="0000001111000000000000" foes="0000001111000000000000"/>
        <request index="7"  response="0000001111000000000000" foes="0000001111000000000000"/>
        <request index="8"  response="0000011111000000111110" foes="1100011111000000111110"/>
        <request index="9"  response="0000011111000000111110" foes="1100011111000000111110"/>
        <request index="10" response="0011011111000000111110" foes="0011011111000000111110"/>
        <request index="11" response="0000000000000000000000" foes="0000000000000000000000"/>
        <request index="12" response="0000000000000000000000" foes="1111000000011111100000"/>
        <request index="13" response="0000000000000000000000" foes="1111000000011111100000"/>
        <request index="14" response="0000000000000000000000" foes="1111000000011111100000"/>
        <request index="15" response="0000000000000000000000" foes="1111000000011111100000"/>
        <request index="16" response="0000000000000000011110" foes="1111000000011100011110"/>
        <request index="17" response="0000000000000000011110" foes="0000000000000000011110"/>
        <request index="18" response="0000011111000000111110" foes="0000011111010000111110"/>
        <request index="19" response="0000011111000000111110" foes="0000011111010000111110"/>
        <request index="20" response="0000011111001100111110" foes="0000011111001100111110"/>
        <request index="21" response="0000011111001100111110" foes="0000011111001100111110"/>
    </junction>
    <junction id="J6" type="dead_end" x="55.06" y="122.86" incLanes="-E5_0 -E5_1" intLanes="" shape="55.06,122.86 55.81,134.84 54.54,114.88"/>
    <junction id="J7" type="dead_end" x="-45.37" y="131.43" incLanes="E6_0 E6_1" intLanes="" shape="-45.37,131.43 -46.09,123.46 -44.67,139.40"/>
    <junction id="J8" type="priority" x="0.99" y="83.86" incLanes="E7_0 E7_1 E7_2" intLanes="" shape="-10.97,85.36 1.03,84.96 1.98,81.85 3.89,79.92 4.60,78.66 4.84,76.81 -11.15,77.38">
        <request index="0" response="00000" foes="00000"/>
        <request index="1" response="00000" foes="00000"/>
        <request index="2" response="00000" foes="00000"/>
        <request index="3" response="00000" foes="00000"/>
        <request index="4" response="00000" foes="00000"/>
    </junction>
    <junction id="J9" type="priority" x="-1.03" y="217.65" incLanes="E9_0 E4_0 E4_1 E4_2" intLanes="" shape="-0.88,224.93 11.12,224.68 11.52,222.45 12.06,221.66 12.82,221.09 13.82,220.75 15.04,220.62 14.99,217.42 12.75,217.01 11.95,216.46 11.37,215.69 11.01,214.70 10.87,213.48 -1.12,213.77">
        <request index="0" response="1110" foes="1110"/>
        <request index="1" response="0000" foes="0001"/>
        <request index="2" response="0000" foes="0001"/>
        <request index="3" response="0000" foes="0001"/>
    </junction>

    <connection from="-E15" to="-E4" fromLane="0" toLane="0" dir="r" state="m"/>
    <connection from="-E15" to="-E14" fromLane="0" toLane="1" dir="s" state="m"/>
    <connection from="-E15" to="-E14" fromLane="1" toLane="2" dir="s" state="m"/>
    <connection from="-E15" to="E16" fromLane="1" toLane="2" dir="l" state="m"/>
    <connection from="-E15" to="E16" fromLane="2" toLane="3" dir="l" state="m"/>
    <connection from="-E16" to="E15" fromLane="0" toLane="0" dir="r" state="M"/>
    <connection from="-E16" to="-E4" fromLane="0" toLane="0" dir="s" state="M"/>
    <connection from="-E16" to="-E4" fromLane="1" toLane="1" dir="s" state="M"/>
    <connection from="-E16" to="-E4" fromLane="2" toLane="2" dir="s" state="M"/>
    <connection from="-E16" to="-E4" fromLane="2" toLane="3" dir="s" state="M"/>
    <connection from="-E16" to="-E14" fromLane="2" toLane="2" dir="l" state="m"/>
    <connection from="-E4" to="-E11" fromLane="0" toLane="0" dir="r" state="M"/>
    <connection from="-E4" to="-E40" fromLane="0" toLane="0" dir="s" state="M"/>
    <connection from="-E4" to="-E40" fromLane="1" toLane="1" dir="s" state="M"/>
    <connection from="-E4" to="-E40" fromLane="2" toLane="2" dir="s" state="M"/>
    <connection from="-E4" to="-E12" fromLane="3" toLane="1" dir="l" state="m"/>
    <connection from="-E40" to="-E40.121" fromLane="0" toLane="0" dir="s" state="M"/>
    <connection from="-E40" to="-E40.121" fromLane="1" toLane="1" dir="s" state="M"/>
    <connection from="-E40" to="-E40.121" fromLane="2" toLane="2" dir="s" state="M"/>
    <connection from="-E40" to="-E40.121" fromLane="2" toLane="3" dir="s" state="M"/>
    <connection from="-E40.121" to="E6" fromLane="0" toLane="0" dir="r" state="M"/>