<?xml version="1.0" encoding="UTF-8"?>

<!-- generated on 2021-06-25 17:52:37 by Eclipse SUMO netedit Version 1.9.1
<configuration xmlns:xsi="http://www.w3.org/2001/XMLSchema-instance" xsi:noNamespaceSchemaLocation="http://sumo.dlr.de/xsd/netconvertConfiguration.xsd">

    <input>
        <sumo-net-file value="/home/duzhiwen/smart_kybersim/release-13168-04-14-virtual/share/object_model/config/smarts_config/scenarios/cross_cutin_a/map.net.xml"/>
    </input>

    <output>
        <output-file value="/home/duzhiwen/smart_kybersim/release-13168-04-14-virtual/share/object_model/config/smarts_config/scenarios/virtual_06_25_split.net.xml"/>
    </output>

    <processing>
        <geometry.min-radius.fix.railways value="false"/>
        <geometry.max-grade.fix value="false"/>
        <offset.disable-normalization value="true"/>
        <lefthand value="false"/>
    </processing>

    <junctions>
        <no-turnarounds value="true"/>
        <junctions.corner-detail value="5"/>
        <junctions.limit-turn-speed value="5.5"/>
        <rectangular-lane-cut value="false"/>
    </junctions>

    <pedestrian>
        <walkingareas value="false"/>
    </pedestrian>

    <report>
        <aggregate-warnings value="5"/>
    </report>

</configuration>
-->

<net version="1.9" junctionCornerDetail="5" limitTurnSpeed="5.50" xmlns:xsi="http://www.w3.org/2001/XMLSchema-instance" xsi:noNamespaceSchemaLocation="http://sumo.dlr.de/xsd/net_file.xsd">

    <location netOffset="0.00,0.00" convBoundary="622760.30,4856533.63,625540.00,4857560.68" origBoundary="-10000000000.00,-10000000000.00,10000000000.00,10000000000.00" projParameter="!"/>

    <edge id=":gneJ10_0" function="internal">
        <lane id=":gneJ10_0_0" index="0" speed="6.59" length="9.34" width="3.00" shape="623944.93,4856547.40 623945.12,4856546.08 623945.14,4856544.26 623944.54,4856543.38 623943.72,4856542.93 623942.76,4856542.29 623941.46,4856542.03 623939.75,4856542.03"/>
    </edge>
    <edge id=":gneJ10_1" function="internal">
        <lane id=":gneJ10_1_0" index="0" speed="10.93" length="27.46" width="3.00" shape="623947.99,4856547.33 623948.34,4856544.08 623948.56,4856542.28 623949.17,4856539.76 623949.74,4856538.31 623950.47,4856536.38 623951.10,4856535.32 623952.36,4856534.21 623953.96,4856532.31 623955.63,4856531.42 623957.83,4856530.93 623960.59,4856530.37 623964.37,4856529.96"/>
        <lane id=":gneJ10_1_1" index="1" speed="10.02" length="22.90" width="3.00" shape="623951.07,4856546.90 623951.27,4856544.86 623951.36,4856542.87 623951.48,4856540.81 623952.03,4856539.60 623952.42,4856538.26 623953.62,4856536.71 623954.62,4856535.64 623956.03,4856534.32 623957.43,4856533.75 623958.95,4856532.92 623960.45,4856532.47 623964.35,4856532.55"/>
    </edge>
    <edge id=":gneJ10_3" function="internal">
        <lane id=":gneJ10_3_0" index="0" speed="6.47" length="8.98" width="3.00" shape="623964.29,4856541.62 623963.90,4856541.67 623962.69,4856541.57 623961.45,4856541.67 623960.55,4856542.31 623960.13,4856543.72 623960.10,4856546.42 623959.98,4856547.27"/>
    </edge>
    <edge id=":gneJ10_4" function="internal">
        <lane id=":gneJ10_4_0" index="0" speed="13.89" length="23.98" width="3.00" shape="623964.29,4856541.13 623940.29,4856541.13"/>
        <lane id=":gneJ10_4_1" index="1" speed="13.89" length="23.98" width="3.00" shape="623964.31,4856538.13 623940.32,4856538.13"/>
        <lane id=":gneJ10_4_2" index="2" speed="13.89" length="23.98" width="3.00" shape="623964.33,4856535.13 623940.35,4856535.13"/>
    </edge>
    <edge id=":gneJ10_7" function="internal">
        <lane id=":gneJ10_7_0" index="0" speed="13.89" length="23.96" width="3.00" shape="623940.44,4856526.13 623964.39,4856526.13"/>
        <lane id=":gneJ10_7_1" index="1" speed="13.89" length="23.96" width="3.00" shape="623940.41,4856529.13 623964.37,4856529.13"/>
    </edge>
    <edge id=":gneJ10_9" function="internal">
        <lane id=":gneJ10_9_0" index="0" speed="10.87" length="10.45" width="3.00" shape="623939.98,4856532.51 623944.42,4856532.60 623947.63,4856532.84 623949.75,4856533.29 623950.27,4856533.63"/>
        <lane id=":gneJ10_9_1" index="1" speed="10.36" length="8.51" width="3.00" shape="623940.09,4856532.47 623942.68,4856532.56 623944.09,4856532.34 623945.95,4856532.67 623947.58,4856533.11 623948.34,4856533.63"/>
    </edge>
    <edge id=":gneJ10_11" function="internal">
        <lane id=":gneJ10_11_0" index="0" speed="6.35" length="7.18" width="3.00" shape="623939.40,4856532.64 623941.62,4856532.61 623943.52,4856532.61 623944.93,4856532.68 623945.80,4856533.21 623946.27,4856533.63"/>
    </edge>
    <edge id=":gneJ10_12" function="internal">
        <lane id=":gneJ10_12_0" index="0" speed="10.87" length="16.71" width="3.00" shape="623950.27,4856533.63 623952.05,4856534.80 623953.50,4856535.95 623954.94,4856538.18 623955.98,4856539.83 623956.93,4856542.23 623957.26,4856544.35 623957.32,4856545.78 623957.05,4856547.73"/>
    </edge>
    <edge id=":gneJ10_13" function="internal">
        <lane id=":gneJ10_13_0" index="0" speed="10.36" length="16.06" width="3.00" shape="623948.34,4856533.63 623949.18,4856534.21 623950.43,4856534.95 623951.20,4856535.86 623952.15,4856536.93 623953.26,4856538.58 623953.88,4856540.10 623954.11,4856542.24 623954.18,4856543.77 623954.18,4856545.83 623954.15,4856547.42"/>
    </edge>
    <edge id=":gneJ10_14" function="internal">
        <lane id=":gneJ10_14_0" index="0" speed="6.35" length="11.80" width="3.00" shape="623946.27,4856533.63 623946.79,4856534.10 623947.27,4856535.14 623947.33,4856536.24 623947.29,4856537.12 623946.19,4856538.12 623944.69,4856538.65 623943.37,4856538.80 623941.60,4856538.83 623939.81,4856538.88"/>
    </edge>
    <edge id=":gneJ11_0" function="internal">
        <lane id=":gneJ11_0_0" index="0" speed="5.86" length="7.19" width="3.00" shape="623944.95,4857063.98 623944.90,4857062.97 623944.43,4857061.94 623943.87,4857060.97 623942.96,4857060.37 623941.76,4857059.73 623940.30,4857059.50"/>
    </edge>
    <edge id=":gneJ11_1" function="internal">
        <lane id=":gneJ11_1_0" index="0" speed="13.89" length="28.69" width="3.00" shape="623944.95,4857064.79 623944.95,4857036.23"/>
        <lane id=":gneJ11_1_1" index="1" speed="13.89" length="28.69" width="3.00" shape="623947.95,4857064.80 623947.48,4857056.29 623946.45,4857050.51 623945.42,4857044.73 623944.95,4857036.23"/>
        <lane id=":gneJ11_1_2" index="2" speed="13.89" length="28.69" width="3.00" shape="623947.95,4857064.80 623947.95,4857036.19"/>
        <lane id=":gneJ11_1_3" index="3" speed="13.89" length="28.69" width="3.00" shape="623947.95,4857064.80 623948.42,4857056.27 623949.45,4857050.47 623950.48,4857044.67 623950.95,4857036.14"/>
        <lane id=":gneJ11_1_4" index="4" speed="13.89" length="28.69" width="3.00" shape="623950.95,4857064.81 623950.95,4857036.14"/>
    </edge>
    <edge id=":gneJ11_6" function="internal">
        <lane id=":gneJ11_6_0" index="0" speed="9.74" length="21.61" width="3.00" shape="623950.95,4857064.81 623951.11,4857062.08 623951.83,4857059.98 623952.81,4857058.24 623953.86,4857056.52 623955.25,4857054.90 623956.37,4857053.27 623957.54,4857052.52 623959.06,4857051.48 623961.16,4857050.35 623962.85,4857050.29 623964.06,4857050.48"/>
    </edge>
    <edge id=":gneJ11_7" function="internal">
        <lane id=":gneJ11_7_0" index="0" speed="5.96" length="7.48" width="3.00" shape="623963.91,4857059.39 623962.81,4857059.59 623961.81,4857060.05 623960.95,4857061.15 623960.47,4857061.98 623959.95,4857064.84"/>
    </edge>
    <edge id=":gneJ11_8" function="internal">
        <lane id=":gneJ11_8_0" index="0" speed="13.89" length="24.09" width="3.00" shape="623963.91,4857059.17 623939.95,4857059.17"/>
        <lane id=":gneJ11_8_1" index="1" speed="13.89" length="24.09" width="3.00" shape="623963.96,4857056.17 623956.80,4857056.64 623951.95,4857057.67 623947.10,4857058.70 623939.95,4857059.17"/>
        <lane id=":gneJ11_8_2" index="2" speed="13.89" length="24.09" width="3.00" shape="623963.96,4857056.17 623939.98,4857056.17"/>
        <lane id=":gneJ11_8_3" index="3" speed="13.89" length="24.09" width="3.00" shape="623963.96,4857056.17 623956.82,4857055.70 623951.99,4857054.67 623947.15,4857053.64 623940.02,4857053.17"/>
    </edge>
    <edge id=":gneJ11_12" function="internal">
        <lane id=":gneJ11_12_0" index="0" speed="11.24" length="12.54" width="3.00" shape="623963.96,4857056.17 623956.95,4857054.92 623952.61,4857051.67"/>
        <lane id=":gneJ11_12_1" index="1" speed="10.82" length="10.61" width="3.00" shape="623963.96,4857056.17 623958.27,4857054.92 623954.75,4857051.67"/>
    </edge>
    <edge id=":gneJ11_14" function="internal">
        <lane id=":gneJ11_14_0" index="0" speed="13.89" length="23.99" width="3.00" shape="623964.01,4857053.17 623940.02,4857053.17"/>
    </edge>
    <edge id=":gneJ11_15" function="internal">
        <lane id=":gneJ11_15_0" index="0" speed="10.24" length="6.16" width="3.00" shape="623964.01,4857053.46 623962.00,4857053.13 623960.36,4857052.99 623958.83,4857052.08 623958.26,4857051.67"/>
    </edge>
    <edge id=":gneJ11_34" function="internal">
        <lane id=":gneJ11_34_0" index="0" speed="11.24" length="16.56" width="3.00" shape="623952.61,4857051.67 623951.95,4857051.17 623948.95,4857044.93 623947.95,4857036.19"/>
    </edge>
    <edge id=":gneJ11_35" function="internal">
        <lane id=":gneJ11_35_0" index="0" speed="10.82" length="16.26" width="3.00" shape="623954.75,4857051.67 623954.20,4857051.16 623951.76,4857044.91 623950.95,4857036.14"/>
    </edge>
    <edge id=":gneJ11_36" function="internal">
        <lane id=":gneJ11_36_0" index="0" speed="10.24" length="17.81" width="3.00" shape="623958.26,4857051.67 623957.52,4857051.14 623956.12,4857049.92 623955.05,4857048.44 623954.08,4857047.04 623952.95,4857045.30 623952.08,4857043.85 623951.49,4857041.60 623951.07,4857040.08 623950.94,4857038.14 623950.94,4857036.24"/>
    </edge>
    <edge id=":gneJ11_16" function="internal">
        <lane id=":gneJ11_16_0" index="0" speed="6.85" length="10.19" width="3.00" shape="623959.95,4857036.02 623959.82,4857037.55 623960.02,4857038.69 623960.10,4857039.77 623960.63,4857041.03 623961.50,4857042.07 623962.38,4857043.35 623963.26,4857043.98 623964.16,4857044.53"/>
    </edge>
    <edge id=":gneJ11_17" function="internal">
        <lane id=":gneJ11_17_0" index="0" speed="13.89" length="28.85" width="3.00" shape="623959.95,4857036.02 623959.95,4857064.84"/>
        <lane id=":gneJ11_17_1" index="1" speed="13.89" length="28.85" width="3.00" shape="623956.95,4857036.06 623957.42,4857044.63 623958.45,4857050.45 623959.48,4857056.28 623959.95,4857064.84"/>
        <lane id=":gneJ11_17_2" index="2" speed="13.89" length="28.85" width="3.00" shape="623956.95,4857036.06 623956.95,4857064.83"/>
        <lane id=":gneJ11_17_3" index="3" speed="13.89" length="28.85" width="3.00" shape="623956.95,4857036.06 623956.48,4857044.62 623955.45,4857050.44 623954.42,4857056.26 623953.95,4857064.82"/>
        <lane id=":gneJ11_17_4" index="4" speed="13.89" length="28.85" width="3.00" shape="623953.95,4857036.10 623953.95,4857064.82"/>
    </edge>
    <edge id=":gneJ11_22" function="internal">
        <lane id=":gneJ11_22_0" index="0" speed="10.30" length="24.27" width="3.00" shape="623953.95,4857036.10 623953.65,4857038.80 623953.30,4857040.85 623952.86,4857042.60 623952.25,4857043.78 623951.63,4857045.14 623951.10,4857046.26 623950.74,4857047.04 623950.03,4857047.80 623948.64,4857049.24 623947.35,4857050.41 623946.18,4857051.48 623944.80,4857052.55 623943.01,4857053.20 623940.29,4857053.50"/>
    </edge>
    <edge id=":gneJ11_23" function="internal">
        <lane id=":gneJ11_23_0" index="0" speed="5.93" length="16.25" width="3.00" shape="623953.95,4857036.10 623953.81,4857038.09 623953.50,4857039.70 623952.49,4857040.63 623951.56,4857040.99 623950.26,4857041.59 623949.03,4857041.38 623947.83,4857041.00 623946.97,4857040.45 623945.71,4857040.09 623945.04,4857038.87 623944.96,4857037.88 623944.95,4857036.29"/>
    </edge>
    <edge id=":gneJ11_24" function="internal">
        <lane id=":gneJ11_24_0" index="0" speed="6.92" length="10.42" width="3.00" shape="623940.12,4857044.17 623942.23,4857043.67 623943.74,4857042.18 623944.65,4857039.70 623944.95,4857036.23"/>
    </edge>
    <edge id=":gneJ11_25" function="internal">
        <lane id=":gneJ11_25_0" index="0" speed="13.89" length="24.28" width="3.00" shape="623940.12,4857044.17 623964.16,4857044.17"/>
        <lane id=":gneJ11_25_1" index="1" speed="13.89" length="24.28" width="3.00" shape="623940.09,4857047.17 623947.26,4857046.70 623952.12,4857045.67 623956.99,4857044.64 623964.16,4857044.17"/>
        <lane id=":gneJ11_25_2" index="2" speed="13.89" length="24.28" width="3.00" shape="623940.09,4857047.17 623964.11,4857047.17"/>
        <lane id=":gneJ11_25_3" index="3" speed="13.89" length="24.28" width="3.00" shape="623940.09,4857047.17 623947.23,4857047.64 623952.07,4857048.67 623956.92,4857049.70 623964.06,4857050.17"/>
        <lane id=":gneJ11_25_4" index="4" speed="13.89" length="24.28" width="3.00" shape="623940.05,4857050.17 623947.31,4857049.23 623952.11,4857047.17 623956.90,4857045.11 623964.16,4857044.17"/>
        <lane id=":gneJ11_25_5" index="5" speed="13.89" length="24.28" width="3.00" shape="623940.05,4857050.17 623947.22,4857049.70 623952.08,4857048.67 623956.94,4857047.64 623964.11,4857047.17"/>
        <lane id=":gneJ11_25_6" index="6" speed="13.89" length="24.28" width="3.00" shape="623940.05,4857050.17 623964.06,4857050.17"/>
    </edge>
    <edge id=":gneJ11_32" function="internal">
        <lane id=":gneJ11_32_0" index="0" speed="9.66" length="6.49" width="3.00" shape="623940.28,4857050.50 623941.27,4857050.17 623942.94,4857050.22 623944.08,4857050.40 623945.87,4857051.32 623946.37,4857051.67"/>
    </edge>
    <edge id=":gneJ11_33" function="internal">
        <lane id=":gneJ11_33_0" index="0" speed="3.53" length="2.19" width="3.00" shape="623940.05,4857050.17 623941.17,4857050.93 623941.54,4857051.69"/>
    </edge>
    <edge id=":gneJ11_37" function="internal">
        <lane id=":gneJ11_37_0" index="0" speed="9.66" length="14.75" width="3.00" shape="623946.37,4857051.67 623947.74,4857052.63 623949.16,4857054.56 623950.13,4857055.51 623951.11,4857057.18 623951.81,4857058.53 623952.74,4857060.13 623953.39,4857061.75 623953.95,4857063.95"/>
    </edge>
    <edge id=":gneJ11_38" function="internal">
        <lane id=":gneJ11_38_0" index="0" speed="3.53" length="2.19" width="3.00" shape="623941.54,4857051.69 623941.15,4857052.43 623940.02,4857053.17"/>
    </edge>
    <edge id=":gneJ32_0" function="internal">
        <lane id=":gneJ32_0_0" index="0" speed="13.89" length="0.10" width="3.00" shape="624200.00,4856541.13 624200.00,4856541.13"/>
        <lane id=":gneJ32_0_1" index="1" speed="13.89" length="0.10" width="3.00" shape="624200.00,4856538.13 624200.00,4856538.13"/>
        <lane id=":gneJ32_0_2" index="2" speed="13.89" length="0.10" width="3.00" shape="624200.00,4856535.13 624200.00,4856535.13"/>
    </edge>
    <edge id=":gneJ33_0" function="internal">
        <lane id=":gneJ33_0_0" index="0" speed="13.89" length="0.10" width="3.00" shape="623709.35,4856526.13 623709.35,4856526.13"/>
        <lane id=":gneJ33_0_1" index="1" speed="13.89" length="0.10" width="3.00" shape="623709.35,4856529.13 623709.35,4856529.13"/>
        <lane id=":gneJ33_0_2" index="2" speed="13.89" length="0.10" width="3.00" shape="623709.35,4856532.13 623709.35,4856532.13"/>
    </edge>
    <edge id=":gneJ34_0" function="internal">
        <lane id=":gneJ34_0_0" index="0" speed="13.89" length="0.10" width="3.00" shape="623944.95,4857299.66 623944.95,4857299.66"/>
        <lane id=":gneJ34_0_1" index="1" speed="13.89" length="0.10" width="3.00" shape="623947.95,4857299.66 623947.95,4857299.66"/>
        <lane id=":gneJ34_0_2" index="2" speed="13.89" length="0.10" width="3.00" shape="623950.95,4857299.66 623950.95,4857299.66"/>
    </edge>
    <edge id=":gneJ35_0" function="internal">
        <lane id=":gneJ35_0_0" index="0" speed="13.89" length="0.10" width="3.00" shape="624200.34,4857059.17 624200.34,4857059.17"/>
        <lane id=":gneJ35_0_1" index="1" speed="13.89" length="0.10" width="3.00" shape="624200.34,4857056.17 624200.34,4857056.17"/>
        <lane id=":gneJ35_0_2" index="2" speed="13.89" length="0.10" width="3.00" shape="624200.34,4857053.17 624200.34,4857053.17"/>
    </edge>
    <edge id=":gneJ36_0" function="internal">
        <lane id=":gneJ36_0_0" index="0" speed="13.89" length="0.10" width="3.00" shape="623700.30,4857044.17 623700.30,4857044.17"/>
        <lane id=":gneJ36_0_1" index="1" speed="13.89" length="0.10" width="3.00" shape="623700.30,4857047.17 623700.30,4857047.17"/>
        <lane id=":gneJ36_0_2" index="2" speed="13.89" length="0.10" width="3.00" shape="623700.30,4857050.17 623700.30,4857050.17"/>
    </edge>
    <edge id=":gneJ37_0" function="internal">
        <lane id=":gneJ37_0_0" index="0" speed="13.89" length="0.10" width="3.00" shape="623944.97,4856791.33 623944.97,4856791.33"/>
        <lane id=":gneJ37_0_1" index="1" speed="13.89" length="0.10" width="3.00" shape="623947.97,4856791.33 623947.97,4856791.33"/>
        <lane id=":gneJ37_0_2" index="2" speed="13.89" length="0.10" width="3.00" shape="623950.97,4856791.33 623950.97,4856791.33"/>
    </edge>
    <edge id=":gneJ38_0" function="internal">
        <lane id=":gneJ38_0_0" index="0" speed="13.89" length="0.10" width="3.00" shape="623959.97,4856792.64 623959.97,4856792.64"/>
        <lane id=":gneJ38_0_1" index="1" speed="13.89" length="0.10" width="3.00" shape="623956.97,4856792.63 623956.97,4856792.63"/>
        <lane id=":gneJ38_0_2" index="2" speed="13.89" length="0.10" width="3.00" shape="623953.97,4856792.63 623953.97,4856792.63"/>
    </edge>

    <edge id="gneE1" from="gneJ11" to="gneJ4" priority="-1" length="500.00">
        <lane id="gneE1_0" index="0" speed="13.89" length="500.00" width="3.00" shape="623939.95,4857059.17 623443.23,4857059.17"/>
        <lane id="gneE1_1" index="1" speed="13.89" length="500.00" width="3.00" shape="623939.98,4857056.17 623443.23,4857056.17"/>
        <lane id="gneE1_2" index="2" speed="13.89" length="500.00" width="3.00" shape="623940.02,4857053.17 623443.23,4857053.17"/>
    </edge>
    <edge id="gneE13" from="gneJ10" to="gneJ22" priority="-1">
        <lane id="gneE13_0" index="0" speed="13.89" length="1180.02" width="3.00" shape="623940.29,4856541.13 622760.30,4856541.13"/>
        <lane id="gneE13_1" index="1" speed="13.89" length="1180.02" width="3.00" shape="623940.32,4856538.13 622760.30,4856538.13"/>
        <lane id="gneE13_2" index="2" speed="13.89" length="1180.02" width="3.00" shape="623940.35,4856535.13 622760.30,4856535.13"/>
    </edge>
    <edge id="gneE14" from="gneJ33" to="gneJ10" priority="-1">
        <lane id="gneE14_0" index="0" speed="13.89" length="231.07" width="3.00" shape="623709.35,4856526.13 623940.44,4856526.13"/>
        <lane id="gneE14_1" index="1" speed="13.89" length="231.07" width="3.00" shape="623709.35,4856529.13 623940.41,4856529.13"/>
        <lane id="gneE14_2" index="2" speed="13.89" length="231.07" width="3.00" shape="623709.35,4856532.13 623940.38,4856532.13"/>
    </edge>
    <edge id="gneE14_1" from="gneJ22" to="gneJ33" priority="-1">
        <lane id="gneE14_1_0" index="0" speed="13.89" length="949.05" width="3.00" shape="622760.30,4856526.13 623709.35,4856526.13"/>
        <lane id="gneE14_1_1" index="1" speed="13.89" length="949.05" width="3.00" shape="622760.30,4856529.13 623709.35,4856529.13"/>
        <lane id="gneE14_1_2" index="2" speed="13.89" length="949.05" width="3.00" shape="622760.30,4856532.13 623709.35,4856532.13"/>
    </edge>
    <edge id="gneE19" from="gneJ32" to="gneJ10" priority="-1">
        <lane id="gneE19_0" index="0" speed="13.89" length="235.69" width="3.00" shape="624200.00,4856541.13 623964.29,4856541.13"/>
        <lane id="gneE19_1" index="1" speed="13.89" length="235.69" width="3.00" shape="624200.00,4856538.13 623964.31,4856538.13"/>
        <lane id="gneE19_2" index="2" speed="13.89" length="235.69" width="3.00" shape="624200.00,4856535.13 623964.33,4856535.13"/>
    </edge>
    <edge id="gneE19_1" from="gneJ31" to="gneJ32" priority="-1">
        <lane id="gneE19_1_0" index="0" speed="13.89" length="1340.00" width="3.00" shape="625540.00,4856541.13 624200.00,4856541.13"/>
        <lane id="gneE19_1_1" index="1" speed="13.89" length="1340.00" width="3.00" shape="625540.00,4856538.13 624200.00,4856538.13"/>
        <lane id="gneE19_1_2" index="2" speed="13.89" length="1340.00" width="3.00" shape="625540.00,4856535.13 624200.00,4856535.13"/>
    </edge>
    <edge id="gneE20" from="gneJ10" to="gneJ31" priority="-1">
        <lane id="gneE20_0" index="0" speed="13.89" length="1575.63" width="3.00" shape="623964.39,4856526.13 625540.00,4856526.13"/>
        <lane id="gneE20_1" index="1" speed="13.89" length="1575.63" width="3.00" shape="623964.37,4856529.13 625540.00,4856529.13"/>
        <lane id="gneE20_2" index="2" speed="13.89" length="1575.63" width="3.00" shape="623964.35,4856532.13 625540.00,4856532.13"/>
    </edge>
    <edge id="gneE2_1" from="gneJ36" to="gneJ11" priority="-1">
        <lane id="gneE2_1_0" index="0" speed="13.89" length="239.79" width="3.00" shape="623700.30,4857044.17 623940.12,4857044.17"/>
        <lane id="gneE2_1_1" index="1" speed="13.89" length="239.79" width="3.00" shape="623700.30,4857047.17 623940.09,4857047.17"/>
        <lane id="gneE2_1_2" index="2" speed="13.89" length="239.79" width="3.00" shape="623700.30,4857050.17 623940.05,4857050.17"/>
    </edge>
    <edge id="gneE2_2" from="gneJ4" to="gneJ36" priority="-1" length="500.00">
        <lane id="gneE2_2_0" index="0" speed="13.89" length="500.00" width="3.00" shape="623443.23,4857044.17 623700.30,4857044.17"/>
        <lane id="gneE2_2_1" index="1" speed="13.89" length="500.00" width="3.00" shape="623443.23,4857047.17 623700.30,4857047.17"/>
        <lane id="gneE2_2_2" index="2" speed="13.89" length="500.00" width="3.00" shape="623443.23,4857050.17 623700.30,4857050.17"/>
    </edge>
    <edge id="gneE3_1" from="gneJ35" to="gneJ11" priority="-1">
        <lane id="gneE3_1_0" index="0" speed="13.89" length="236.38" width="3.00" shape="624200.34,4857059.17 623963.91,4857059.17"/>
        <lane id="gneE3_1_1" index="1" speed="13.89" length="236.38" width="3.00" shape="624200.34,4857056.17 623963.96,4857056.17"/>
        <lane id="gneE3_1_2" index="2" speed="13.89" length="236.38" width="3.00" shape="624200.34,4857053.17 623964.01,4857053.17"/>
    </edge>
    <edge id="gneE3_2" from="gneJ6" to="gneJ35" priority="-1" length="500.00">
        <lane id="gneE3_2_0" index="0" speed="13.89" length="500.00" width="3.00" shape="624461.35,4857059.17 624200.34,4857059.17"/>
        <lane id="gneE3_2_1" index="1" speed="13.89" length="500.00" width="3.00" shape="624461.35,4857056.17 624200.34,4857056.17"/>
        <lane id="gneE3_2_2" index="2" speed="13.89" length="500.00" width="3.00" shape="624461.35,4857053.17 624200.34,4857053.17"/>
    </edge>
    <edge id="gneE4" from="gneJ11" to="gneJ6" priority="-1" length="500.00">
        <lane id="gneE4_0" index="0" speed="13.89" length="500.00" width="3.00" shape="623964.16,4857044.17 624461.35,4857044.17"/>
        <lane id="gneE4_1" index="1" speed="13.89" length="500.00" width="3.00" shape="623964.11,4857047.17 624461.35,4857047.17"/>
        <lane id="gneE4_2" index="2" speed="13.89" length="500.00" width="3.00" shape="623964.06,4857050.17 624461.35,4857050.17"/>
    </edge>
    <edge id="gneE5_1" from="gneJ34" to="gneJ11" priority="-1">
        <lane id="gneE5_1_0" index="0" speed="13.89" length="234.87" width="3.00" shape="623944.95,4857299.66 623944.95,4857064.79"/>
        <lane id="gneE5_1_1" index="1" speed="13.89" length="234.87" width="3.00" shape="623947.95,4857299.66 623947.95,4857064.80"/>
        <lane id="gneE5_1_2" index="2" speed="13.89" length="234.87" width="3.00" shape="623950.95,4857299.66 623950.95,4857064.81"/>
    </edge>
    <edge id="gneE5_2" from="gneJ8" to="gneJ34" priority="-1">
        <lane id="gneE5_2_0" index="0" speed="13.89" length="261.02" width="3.00" shape="623944.95,4857560.68 623944.95,4857299.66"/>
        <lane id="gneE5_2_1" index="1" speed="13.89" length="261.02" width="3.00" shape="623947.95,4857560.68 623947.95,4857299.66"/>
        <lane id="gneE5_2_2" index="2" speed="13.89" length="261.02" width="3.00" shape="623950.95,4857560.68 623950.95,4857299.66"/>
    </edge>
    <edge id="gneE6" from="gneJ11" to="gneJ8" priority="-1">
        <lane id="gneE6_0" index="0" speed="13.89" length="495.85" width="3.00" shape="623959.95,4857064.84 623959.95,4857560.68"/>
        <lane id="gneE6_1" index="1" speed="13.89" length="495.85" width="3.00" shape="623956.95,4857064.83 623956.95,4857560.68"/>
        <lane id="gneE6_2" index="2" speed="13.89" length="495.85" width="3.00" shape="623953.95,4857064.82 623953.95,4857560.68"/>
    </edge>
    <edge id="gneE7_1" from="gneJ38" to="gneJ11" priority="-1">
        <lane id="gneE7_1_0" index="0" speed="13.89" length="243.43" width="3.00" shape="623959.97,4856792.64 623959.95,4857036.02"/>
        <lane id="gneE7_1_1" index="1" speed="13.89" length="243.43" width="3.00" shape="623956.97,4856792.63 623956.95,4857036.06"/>
        <lane id="gneE7_1_2" index="2" speed="13.89" length="243.43" width="3.00" shape="623953.97,4856792.63 623953.95,4857036.10"/>
    </edge>
    <edge id="gneE7_2" from="gneJ10" to="gneJ38" priority="-1">
        <lane id="gneE7_2_0" index="0" speed="13.89" length="246.83" width="3.00" shape="623959.99,4856545.78 623959.97,4856792.64"/>
        <lane id="gneE7_2_1" index="1" speed="13.89" length="246.83" width="3.00" shape="623956.99,4856545.81 623956.97,4856792.63"/>
        <lane id="gneE7_2_2" index="2" speed="13.89" length="246.83" width="3.00" shape="623953.99,4856545.84 623953.97,4856792.63"/>
    </edge>
    <edge id="gneE8_1" from="gneJ11" to="gneJ37" priority="-1">
        <lane id="gneE8_1_0" index="0" speed="13.89" length="244.86" width="3.00" shape="623944.95,4857036.23 623944.97,4856791.33"/>
        <lane id="gneE8_1_1" index="1" speed="13.89" length="244.86" width="3.00" shape="623947.95,4857036.19 623947.97,4856791.33"/>
        <lane id="gneE8_1_2" index="2" speed="13.89" length="244.86" width="3.00" shape="623950.95,4857036.14 623950.97,4856791.33"/>
    </edge>
    <edge id="gneE8_2" from="gneJ37" to="gneJ10" priority="-1">
        <lane id="gneE8_2_0" index="0" speed="13.89" length="245.43" width="3.00" shape="623944.97,4856791.33 623944.99,4856545.93"/>
        <lane id="gneE8_2_1" index="1" speed="13.89" length="245.43" width="3.00" shape="623947.97,4856791.33 623947.99,4856545.90"/>
        <lane id="gneE8_2_2" index="2" speed="13.89" length="245.43" width="3.00" shape="623950.97,4856791.33 623950.99,4856545.87"/>
    </edge>

    <junction id="gneJ10" type="priority" x="623952.49" y="4856533.63" incLanes="gneE8_2_0 gneE8_2_1 gneE8_2_2 gneE19_0 gneE19_1 gneE19_2 gneE14_0 gneE14_1 gneE14_2" intLanes=":gneJ10_0_0 :gneJ10_1_0 :gneJ10_1_1 :gneJ10_3_0 :gneJ10_4_0 :gneJ10_4_1 :gneJ10_4_2 :gneJ10_7_0 :gneJ10_7_1 :gneJ10_12_0 :gneJ10_13_0 :gneJ10_14_0" shape="623943.83,4856545.94 623961.86,4856545.76 623964.27,4856543.45 623964.40,4856525.21 623940.45,4856525.21 623940.27,4856543.57 623941.56,4856544.28" customShape="1">
        <request index="0"  response="000001110000" foes="000001110000" cont="0"/>
        <request index="1"  response="011111110000" foes="011111110000" cont="0"/>
        <request index="2"  response="011111110000" foes="011111110000" cont="0"/>
        <request index="3"  response="000000000000" foes="000000000000" cont="0"/>
        <request index="4"  response="000000000000" foes="111000000111" cont="0"/>
        <request index="5"  response="000000000000" foes="111000000111" cont="0"/>
        <request index="6"  response="000000000000" foes="111000000111" cont="0"/>
        <request index="7"  response="000000000000" foes="000000000110" cont="0"/>
        <request index="8"  response="000000000000" foes="000000000110" cont="0"/>
        <request index="9"  response="000001110000" foes="000001110110" cont="1"/>
        <request index="10" response="000001110000" foes="000001110110" cont="1"/>
        <request index="11" response="000001110000" foes="000001110000" cont="1"/>
    </junction>
    <junction id="gneJ11" type="priority" x="623952.45" y="4857051.67" incLanes="gneE5_1_0 gneE5_1_1 gneE5_1_2 gneE3_1_0 gneE3_1_1 gneE3_1_2 gneE7_1_0 gneE7_1_1 gneE7_1_2 gneE2_1_0 gneE2_1_1 gneE2_1_2" intLanes=":gneJ11_0_0 :gneJ11_1_0 :gneJ11_1_1 :gneJ11_1_2 :gneJ11_1_3 :gneJ11_1_4 :gneJ11_6_0 :gneJ11_7_0 :gneJ11_8_0 :gneJ11_8_1 :gneJ11_8_2 :gneJ11_8_3 :gneJ11_34_0 :gneJ11_35_0 :gneJ11_14_0 :gneJ11_36_0 :gneJ11_16_0 :gneJ11_17_0 :gneJ11_17_1 :gneJ11_17_2 :gneJ11_17_3 :gneJ11_17_4 :gneJ11_22_0 :gneJ11_23_0 :gneJ11_24_0 :gneJ11_25_0 :gneJ11_25_1 :gneJ11_25_2 :gneJ11_25_3 :gneJ11_25_4 :gneJ11_25_5 :gneJ11_25_6 :gneJ11_37_0 :gneJ11_38_0" shape="623943.30,4857064.78 623961.49,4857064.85 623962.32,4857062.82 623963.88,4857060.83 623964.18,4857042.87 623963.63,4857041.33 623963.26,4857040.33 623962.24,4857038.45 623961.74,4857037.46 623961.39,4857036.00 623943.35,4857036.25 623943.46,4857037.56 623943.18,4857040.09 623942.17,4857041.55 623940.14,4857042.57 623939.93,4857060.99 623941.45,4857061.63 623942.48,4857062.36 623943.28,4857063.31" customShape="1">
        <request index="0"  response="0000000000000000000100111100000000" foes="0000000000000000000100111100000000" cont="0"/>
        <request index="1"  response="0111111111000000001111111100000100" foes="0111111111110000001111111100000100" cont="0"/>
        <request index="2"  response="0111111111000000001111111100000000" foes="0111111111110000001111111100000010" cont="0"/>