<?xml version="1.0" encoding="UTF-8"?>

<!-- generated on Thu  8 Oct 09:31:35 2020 by Eclipse SUMO netedit Version 1.5.0
<configuration xmlns:xsi="http://www.w3.org/2001/XMLSchema-instance" xsi:noNamespaceSchemaLocation="http://sumo.dlr.de/xsd/netconvertConfiguration.xsd">

    <input>
        <sumo-net-file value="/Users/kimia_hszd/ULTRA/ultra/scenarios/pool/2lane_curvy_t/100kmh/map.net.xml"/>
    </input>

    <output>
        <output-file value="/Users/kimia_hszd/ULTRA/ultra/scenarios/pool/2lane_curvy_t/100kmh/map.net.xml"/>
    </output>

    <processing>
        <geometry.min-radius.fix.railways value="false"/>
        <geometry.max-grade.fix value="false"/>
        <offset.disable-normalization value="true"/>
        <lefthand value="false"/>
    </processing>

    <junctions>
        <no-turnarounds value="true"/>
        <junctions.corner-detail value="5"/>
        <junctions.limit-turn-speed value="-1"/>
        <rectangular-lane-cut value="false"/>
    </junctions>

    <pedestrian>
        <walkingareas value="false"/>
    </pedestrian>

    <report>
        <aggregate-warnings value="5"/>
    </report>

</configuration>
-->

<net version="1.3" junctionCornerDetail="5" xmlns:xsi="http://www.w3.org/2001/XMLSchema-instance" xsi:noNamespaceSchemaLocation="http://sumo.dlr.de/xsd/net_file.xsd">

    <location netOffset="0.00,0.00" convBoundary="-108.86,-69.32,294.16,100.00" origBoundary="-10000000000.00,-10000000000.00,10000000000.00,10000000000.00" projParameter="!"/>

    <edge id=":gneJ2_0" function="internal">
        <lane id=":gneJ2_0_0" index="0" speed="13.89" length="2.58" shape="-105.65,-67.72 -106.35,-67.62 -106.85,-67.32 -107.15,-66.82 -107.25,-66.12"/>
    </edge>
    <edge id=":junction-intersection_0" function="internal">
        <lane id=":junction-intersection_0_0" index="0" speed="27.78" length="14.40" shape="107.20,101.60 92.80,101.59"/>
    </edge>
    <edge id=":junction-intersection_1" function="internal">
        <lane id=":junction-intersection_1_0" index="0" speed="20.84" length="5.93" shape="107.20,101.60 103.35,101.05 101.60,100.00"/>
    </edge>
    <edge id=":junction-intersection_6" function="internal">
        <lane id=":junction-intersection_6_0" index="0" speed="20.84" length="8.26" shape="101.60,100.00 100.60,99.40 98.95,96.65 98.40,92.80"/>
    </edge>
    <edge id=":junction-intersection_2" function="internal">
        <lane id=":junction-intersection_2_0" index="0" speed="20.84" length="9.03" shape="101.60,92.80 101.95,95.25 103.00,97.00 104.75,98.05 107.20,98.40"/>
    </edge>
    <edge id=":junction-intersection_3" function="internal">
        <lane id=":junction-intersection_3_0" index="0" speed="20.84" length="14.19" shape="101.60,92.80 101.05,96.65 99.40,99.40 96.65,101.05 92.80,101.59"/>
    </edge>
    <edge id=":junction-intersection_4" function="internal">
        <lane id=":junction-intersection_4_0" index="0" speed="20.84" length="9.03" shape="92.80,98.39 95.25,98.05 97.00,97.00 98.05,95.25 98.40,92.80"/>
    </edge>
    <edge id=":junction-intersection_5" function="internal">
        <lane id=":junction-intersection_5_0" index="0" speed="27.78" length="14.40" shape="92.80,98.39 107.20,98.40"/>
    </edge>
    <edge id=":junction-south_0" function="internal">
        <lane id=":junction-south_0_0" index="0" speed="13.89" length="6.29" shape="90.41,-64.53 89.52,-65.91 88.39,-66.89 87.00,-67.48 85.38,-67.68"/>
    </edge>

    <edge id="edge-dead-end" from="gneJ2" to="gneJ3" priority="-1">
        <lane id="edge-dead-end_0" index="0" speed="13.89" length="55.58" shape="-107.25,-66.12 -107.26,-10.54"/>
    </edge>
    <edge id="edge-east-EW" from="junction-east" to="junction-intersection" priority="1">
        <lane id="edge-east-EW_0" index="0" speed="27.78" length="186.96" shape="294.16,101.60 107.20,101.60"/>
    </edge>
    <edge id="edge-east-WE" from="junction-intersection" to="junction-east" priority="1" spreadType="center" shape="99.99,98.40 294.16,98.40">
        <lane id="edge-east-WE_0" index="0" speed="27.78" length="186.96" shape="107.20,98.40 294.16,98.40"/>
    </edge>
    <edge id="edge-south-NS" from="junction-intersection" to="junction-south" priority="-1" shape="100.00,100.00 100.02,61.46 94.01,41.24 95.40,16.15 111.02,-2.85 111.38,-25.09 89.88,-69.28">
        <lane id="edge-south-NS_0" index="0" speed="13.89" length="168.30" shape="98.40,92.80 98.42,61.69 92.40,41.43 93.83,15.54 109.43,-3.43 109.77,-24.73 90.41,-64.53"/>
    </edge>
    <edge id="edge-south-SN" from="junction-south" to="junction-intersection" priority="-1" shape="89.88,-69.28 111.38,-25.09 111.02,-2.85 95.40,16.15 94.01,41.24 100.02,61.46 100.00,100.00">
        <lane id="edge-south-SN_0" index="0" speed="13.89" length="169.78" shape="93.29,-65.93 112.99,-25.45 112.61,-2.27 96.97,16.76 95.62,41.05 101.62,61.23 101.60,92.80"/>
    </edge>
    <edge id="edge-south-side" from="junction-south" to="gneJ2" priority="-1">
        <lane id="edge-south-side_0" index="0" speed="13.89" length="191.03" shape="85.38,-67.68 -105.65,-67.72"/>
    </edge>
    <edge id="edge-west-EW" from="junction-intersection" to="junction-west" priority="1">
        <lane id="edge-west-EW_0" index="0" speed="27.78" length="201.66" shape="92.80,101.59 -108.86,101.44"/>
    </edge>
    <edge id="edge-west-WE" from="junction-west" to="junction-intersection" priority="1">
        <lane id="edge-west-WE_0" index="0" speed="27.78" length="201.66" shape="-108.86,98.24 92.80,98.39"/>
    </edge>

    <junction id="gneJ2" type="priority" x="-108.85" y="-69.32" incLanes="edge-south-side_0" intLanes=":gneJ2_0_0" shape="-108.85,-66.12 -105.65,-66.12 -105.65,-69.32 -107.43,-68.96 -108.05,-68.52 -108.49,-67.90 -108.76,-67.10">
        <request index="0" response="0" foes="0" cont="0"/>
    </junction>
    <junction id="gneJ3" type="dead_end" x="-108.86" y="-10.54" incLanes="edge-dead-end_0" intLanes="" shape="-105.66,-10.54 -108.86,-10.54"/>
    <junction id="junction-east" type="dead_end" x="294.16" y="100.00" incLanes="edge-east-WE_0" intLanes="" shape="294.16,100.00 294.16,96.80 294.16,100.00"/>
    <junction id="junction-intersection" type="priority" x="100.00" y="100.00" incLanes="edge-east-EW_0 edge-south-SN_0 edge-west-WE_0" intLanes=":junction-intersection_0_0 :junction-intersection_6_0 :junction-intersection_2_0 :junction-intersection_3_0 :junction-intersection_4_0 :junction-intersection_5_0" shape="107.20,103.20 107.20,96.80 104.98,96.36 104.20,95.80 103.65,95.02 103.31,94.02 103.20,92.80 96.80,92.80 96.36,95.02 95.80,95.80 95.02,96.35 94.02,96.68 92.80,96.79 92.80,103.19" rightOfWay="edgePriority">
        <request index="0" response="000000" foes="001000" cont="0"/>
        <request index="1" response="110000" foes="111000" cont="1"/>
        <request index="2" response="100000" foes="100000" cont="0"/>
        <request index="3" response="100011" foes="100011" cont="0"/>
        <request index="4" response="000000" foes="000010" cont="0"/>
        <request index="5" response="000000" foes="001110" cont="0"/>
    </junction>
    <junction id="junction-south" type="priority" x="89.88" y="-69.28" incLanes="edge-south-NS_0" intLanes=":junction-south_0_0" shape="88.97,-63.83 94.73,-66.63 93.12,-68.10 91.75,-68.62 90.00,-68.99 87.88,-69.21 85.38,-69.28 85.38,-66.08 86.89,-65.83 87.53,-65.52 88.09,-65.08 88.57,-64.52">
        <request index="0" response="0" foes="0" cont="0"/>
    </junction>
    <junction id="junction-west" type="dead_end" x="-108.86" y="99.84" incLanes="edge-west-EW_0" intLanes="" shape="-108.86,99.84 -108.86,103.04 -108.86,99.84"/>

    <junction id=":junction-intersection_6_0" type="internal" x="101.60" y="100.00" incLanes=":junction-intersection_1_0 edge-west-WE_0" intLanes=":junction-intersection_3_0 :junction-intersection_4_0 :junction-intersection_5_0"/>

    <connection from="edge-east-EW" to="edge-west-EW" fromLane="0" toLane="0" via=":junction-intersection_0_0" dir="s" state="M"/>
    <connection from="edge-east-EW" to="edge-south-NS" fromLane="0" toLane="0" via=":junction-intersection_1_0" dir="l" state="m"/>
    <connection from="edge-south-NS" to="edge-south-side" fromLane="0" toLane="0" via=":junction-south_0_0" dir="r" state="M"/>
    <connection from="edge-south-SN" to="edge-east-WE" fromLane="0" toLane="0" via=":junction-intersection_2_0" dir="r" state="m"/>
    <connection from="edge-south-SN" to="edge-west-EW" fromLane="0" toLane="0" via=":junction-intersection_3_0" dir="l" state="m"/>
    <connection from="edge-south-side" to="edge-dead-end" fromLane="0" toLane="0" via=":gneJ2_0_0" dir="r" state="M"/>
    <connection from="edge-west-WE" to="edge-south-NS" fromLane="0" toLane="0" via=":junction-intersection_4_0" dir="r" state="M"/>
    <connection from="edge-west-WE" to="edge-east-WE" fromLane="0" toLane="0" via=":junction-intersection_5_0" dir="s" state="M"/>

    <connection from=":gneJ2_0" to="edge-dead-end" fromLane="0" toLane="0" dir="r" state="M"/>
    <connection from=":junction-intersection_0" to="edge-west-EW" fromLane="0" toLane="0" dir="s" state="M"/>
    <connection from=":junction-intersection_1" to="edge-south-NS" fromLane="0" toLane="0" via=":junction-intersection_6_0" dir="l" state="m"/>
    <connection from=":junction-intersection_6" to="edge-south-NS" fromLane="0" toLane="0" dir="l" state="M"/>
    <connection from=":junction-intersection_2" to="edge-east-WE" fromLane="0" toLane="0" dir="r" state="M"/>
    <connection from=":junction-intersection_3" to="edge-west-EW" fromLane="0" toLane="0" dir="l" state="M"/>
    <connection from=":junction-intersection_4" to="edge-south-NS" fromLane="0" toLane="0" dir="r" state="M"/>
    <connection from=":junction-intersection_5" to="edge-east-WE" fromLane="0" toLane="0" dir="s" state="M"/>
    <connection from=":junction-south_0" to="edge-south-side" fromLane="0" toLane="0" dir="r" state="M"/>

</net>
