<?xml version="1.0" encoding="UTF-8"?>
<routes xmlns:xsi="http://www.w3.org/2001/XMLSchema-instance" xsi:noNamespaceSchemaLocation="http://sumo.dlr.de/xsd/routes_file.xsd">
  <vType accel="3.0" decel="2.0" id="npc-lateral" minGap="2.5" maxSpeed="15" sigma="0.5" lcStrategic="0.0"  lcCooperative="0.0" lcSpeedGain="0.0" lcKeepRight="0.0" 
  lcOpposite="0.0" lcLookaheadLeft="0.0" lcSpeedGainRight="0.0" lcSublane="0.0"/>
  
  <route id="crossStraight" edges="E3l-3 E3-35"/>

  <vehicle id="npc-lateral-straight" type="npc-lateral" depart="0" departLane="1" arrivalLane="1" departPos="500" arrivalPos="15" route="crossStraight" color="255, 255, 0"/>

</routes>