<?xml version="1.0" encoding="UTF-8"?>
<routes xmlns:xsi="http://www.w3.org/2001/XMLSchema-instance" xsi:noNamespaceSchemaLocation="http://sumo.dlr.de/xsd/routes_file.xsd">
<!--straight_straight -->
  <vType accel="3.0" decel="2.0" id="npc" minGap="2.5" maxSpeed="15" sigma="0.5" lcStrategic="0.0"  lcCooperative="0.0" lcSpeedGain="0.0" lcKeepRight="0.0" 
  lcOpposite="0.0" lcLookaheadLeft="0.0" lcSpeedGainRight="0.0" lcSublane="0.0"/>
  
  <route id="straight" edges="E3n-3 E3-3s"/>

  <vehicle id="npc_straight" type="npc" depart="0" departLane="1" arrivalLane="1" departPos="470" route="straight" color="255,255,0"/>

</routes>
