<?xml version="1.0" encoding="UTF-8"?>

<!-- generated on Thu  8 Oct 14:29:25 2020 by Eclipse SUMO netedit Version 1.5.0
<configuration xmlns:xsi="http://www.w3.org/2001/XMLSchema-instance" xsi:noNamespaceSchemaLocation="http://sumo.dlr.de/xsd/netconvertConfiguration.xsd">

    <input>
        <sumo-net-file value="/Users/kimia_hszd/ULTRA/ultra/scenarios/pool/2lane_curvy_t/50kmh/map.net.xml"/>
    </input>

    <output>
        <output-file value="/Users/kimia_hszd/ULTRA/ultra/scenarios/pool/2lane_curvy_t/50kmh/map.net.xml"/>
    </output>

    <processing>
        <geometry.min-radius.fix.railways value="false"/>
        <geometry.max-grade.fix value="false"/>
        <offset.disable-normalization value="true"/>
        <lefthand value="false"/>
    </processing>

    <junctions>
        <no-turnarounds value="true"/>
        <junctions.corner-detail value="5"/>
        <junctions.limit-turn-speed value="-1"/>
        <rectangular-lane-cut value="false"/>
    </junctions>

    <pedestrian>
        <walkingareas value="false"/>
    </pedestrian>

    <report>
        <aggregate-warnings value="5"/>
    </report>

</configuration>
-->

<net version="1.3" junctionCornerDetail="5" xmlns:xsi="http://www.w3.org/2001/XMLSchema-instance" xsi:noNamespaceSchemaLocation="http://sumo.dlr.de/xsd/net_file.xsd">

    <location netOffset="0.00,0.00" convBoundary="-112.89,-44.71,296.31,144.48" origBoundary="-10000000000.00,-10000000000.00,10000000000.00,10000000000.00" projParameter="!"/>

    <edge id=":gneJ1_0" function="internal">
        <lane id=":gneJ1_0_0" index="0" speed="13.89" length="2.58" shape="-109.69,-43.11 -110.39,-43.01 -110.89,-42.71 -111.19,-42.21 -111.29,-41.51"/>
    </edge>
    <edge id=":junction-intersection_0" function="internal">
        <lane id=":junction-intersection_0_0" index="0" speed="13.89" length="14.39" shape="109.06,145.92 94.67,145.92"/>
    </edge>
    <edge id=":junction-intersection_1" function="internal">
        <lane id=":junction-intersection_1_0" index="0" speed="13.89" length="5.92" shape="109.06,145.92 105.22,145.36 103.47,144.32"/>
    </edge>
    <edge id=":junction-intersection_6" function="internal">
        <lane id=":junction-intersection_6_0" index="0" speed="13.89" length="8.27" shape="103.47,144.32 102.47,143.71 100.81,140.96 100.26,137.11"/>
    </edge>
    <edge id=":junction-intersection_2" function="internal">
        <lane id=":junction-intersection_2_0" index="0" speed="13.89" length="9.04" shape="103.46,137.11 103.81,139.56 104.86,141.31 106.61,142.36 109.06,142.72"/>
    </edge>
    <edge id=":junction-intersection_3" function="internal">
        <lane id=":junction-intersection_3_0" index="0" speed="13.89" length="14.20" shape="103.46,137.11 102.91,140.96 101.27,143.71 98.52,145.36 94.67,145.92"/>
    </edge>
    <edge id=":junction-intersection_4" function="internal">
        <lane id=":junction-intersection_4_0" index="0" speed="13.89" length="9.03" shape="94.67,142.72 97.12,142.36 98.87,141.31 99.91,139.56 100.26,137.11"/>
    </edge>
    <edge id=":junction-intersection_5" function="internal">
        <lane id=":junction-intersection_5_0" index="0" speed="13.89" length="14.40" shape="94.67,142.72 109.06,142.72"/>
    </edge>
    <edge id=":junction-south_0" function="internal">
        <lane id=":junction-south_0_0" index="0" speed="13.89" length="10.61" shape="81.35,-37.92 84.10,-40.18 84.76,-41.80 83.31,-42.77 79.76,-43.09"/>
    </edge>

    <edge id="edge-dead-end" from="gneJ1" to="gneJ2" priority="-1">
        <lane id="edge-dead-end_0" index="0" speed="13.89" length="112.55" shape="-111.29,-41.51 -111.29,71.04"/>
    </edge>
    <edge id="edge-east-EW" from="junction-east" to="junction-intersection" priority="1">
        <lane id="edge-east-EW_0" index="0" speed="13.89" length="187.25" shape="296.31,146.08 109.06,145.92"/>
    </edge>
    <edge id="edge-east-WE" from="junction-intersection" to="junction-east" priority="1" spreadType="center" shape="101.86,142.71 296.31,142.88">
        <lane id="edge-east-WE_0" index="0" speed="13.89" length="187.25" shape="109.06,142.72 296.31,142.88"/>
    </edge>
    <edge id="edge-south-NS" from="junction-intersection" to="junction-south" priority="-1" shape="101.87,144.31 101.82,111.53 97.60,81.96 86.53,64.53 72.48,46.39 60.93,26.10 58.50,3.17 61.52,-16.61 75.37,-31.92 94.16,-44.69">
        <lane id="edge-south-NS_0" index="0" speed="13.89" length="196.01" shape="100.26,137.11 100.22,111.64 96.06,82.53 85.22,65.45 71.15,47.28 59.37,26.60 56.89,3.13 60.01,-17.33 74.31,-33.14 81.35,-37.92"/>
    </edge>
    <edge id="edge-south-SN" from="junction-south" to="junction-intersection" priority="-1" shape="94.16,-44.69 75.37,-31.92 61.52,-16.61 58.50,3.17 60.93,26.10 72.48,46.39 86.53,64.53 97.60,81.96 101.82,111.53 101.87,144.31">
        <lane id="edge-south-SN_0" index="0" speed="13.89" length="192.83" shape="83.15,-35.27 76.43,-30.70 63.03,-15.89 60.11,3.21 62.49,25.60 73.81,45.50 87.84,63.61 99.14,81.39 103.42,111.42 103.46,137.11"/>
    </edge>
    <edge id="edge-south-side" from="junction-south" to="gneJ1" priority="-1">
        <lane id="edge-south-side_0" index="0" speed="13.89" length="189.45" shape="79.76,-43.09 -109.69,-43.11"/>
    </edge>
    <edge id="edge-west-EW" from="junction-intersection" to="junction-west" priority="1">
        <lane id="edge-west-EW_0" index="0" speed="13.89" length="200.92" shape="94.67,145.92 -106.25,146.07"/>
    </edge>
    <edge id="edge-west-WE" from="junction-west" to="junction-intersection" priority="1">
        <lane id="edge-west-WE_0" index="0" speed="13.89" length="200.92" shape="-106.25,142.87 94.67,142.72"/>
    </edge>

    <junction id="gneJ1" type="priority" x="-112.89" y="-44.71" incLanes="edge-south-side_0" intLanes=":gneJ1_0_0" shape="-112.89,-41.51 -109.69,-41.51 -109.69,-44.71 -111.47,-44.35 -112.09,-43.91 -112.53,-43.29 -112.80,-42.49">
        <request index="0" response="0" foes="0" cont="0"/>
    </junction>
    <junction id="gneJ2" type="dead_end" x="-112.89" y="71.04" incLanes="edge-dead-end_0" intLanes="" shape="-109.69,71.04 -112.89,71.04"/>
    <junction id="junction-east" type="dead_end" x="296.31" y="144.48" incLanes="edge-east-WE_0" intLanes="" shape="296.31,144.48 296.31,141.28 296.31,144.48"/>
    <junction id="junction-intersection" type="priority" x="101.87" y="144.31" incLanes="edge-east-EW_0 edge-south-SN_0 edge-west-WE_0" intLanes=":junction-intersection_0_0 :junction-intersection_6_0 :junction-intersection_2_0 :junction-intersection_3_0 :junction-intersection_4_0 :junction-intersection_5_0" shape="109.06,147.52 109.07,141.12 106.84,140.67 106.06,140.11 105.51,139.33 105.17,138.33 105.06,137.10 98.66,137.11 98.22,139.34 97.66,140.11 96.89,140.67 95.89,141.00 94.67,141.12 94.67,147.52" rightOfWay="edgePriority">
        <request index="0" response="000000" foes="001000" cont="0"/>
        <request index="1" response="110000" foes="111000" cont="1"/>
        <request index="2" response="100000" foes="100000" cont="0"/>
        <request index="3" response="100011" foes="100011" cont="0"/>
        <request index="4" response="000000" foes="000010" cont="0"/>
        <request index="5" response="000000" foes="001110" cont="0"/>
    </junction>
    <junction id="junction-south" type="priority" x="94.16" y="-44.69" incLanes="edge-south-NS_0" intLanes=":junction-south_0_0" shape="79.76,-44.69 79.76,-41.49 81.61,-41.24 81.93,-40.93 81.85,-40.49 81.35,-39.93 80.45,-39.24 84.05,-33.95 88.32,-37.23 90.60,-39.92 90.88,-42.00 89.17,-43.50 85.46,-44.39">
        <request index="0" response="0" foes="0" cont="0"/>
    </junction>
    <junction id="junction-west" type="dead_end" x="-106.25" y="144.47" incLanes="edge-west-EW_0" intLanes="" shape="-106.25,144.47 -106.25,147.67 -106.25,144.47"/>

    <junction id=":junction-intersection_6_0" type="internal" x="103.47" y="144.32" incLanes=":junction-intersection_1_0 edge-west-WE_0" intLanes=":junction-intersection_3_0 :junction-intersection_4_0 :junction-intersection_5_0"/>

    <connection from="edge-east-EW" to="edge-west-EW" fromLane="0" toLane="0" via=":junction-intersection_0_0" dir="s" state="M"/>
    <connection from="edge-east-EW" to="edge-south-NS" fromLane="0" toLane="0" via=":junction-intersection_1_0" dir="l" state="m"/>
    <connection from="edge-south-NS" to="edge-south-side" fromLane="0" toLane="0" via=":junction-south_0_0" dir="r" state="M"/>
    <connection from="edge-south-SN" to="edge-east-WE" fromLane="0" toLane="0" via=":junction-intersection_2_0" dir="r" state="m"/>
    <connection from="edge-south-SN" to="edge-west-EW" fromLane="0" toLane="0" via=":junction-intersection_3_0" dir="l" state="m"/>
    <connection from="edge-south-side" to="edge-dead-end" fromLane="0" toLane="0" via=":gneJ1_0_0" dir="r" state="M"/>
    <connection from="edge-west-WE" to="edge-south-NS" fromLane="0" toLane="0" via=":junction-intersection_4_0" dir="r" state="M"/>
    <connection from="edge-west-WE" to="edge-east-WE" fromLane="0" toLane="0" via=":junction-intersection_5_0" dir="s" state="M"/>

    <connection from=":gneJ1_0" to="edge-dead-end" fromLane="0" toLane="0" dir="r" state="M"/>
    <connection from=":junction-intersection_0" to="edge-west-EW" fromLane="0" toLane="0" dir="s" state="M"/>
    <connection from=":junction-intersection_1" to="edge-south-NS" fromLane="0" toLane="0" via=":junction-intersection_6_0" dir="l" state="m"/>
    <connection from=":junction-intersection_6" to="edge-south-NS" fromLane="0" toLane="0" dir="l" state="M"/>
    <connection from=":junction-intersection_2" to="edge-east-WE" fromLane="0" toLane="0" dir="r" state="M"/>
    <connection from=":junction-intersection_3" to="edge-west-EW" fromLane="0" toLane="0" dir="l" state="M"/>
    <connection from=":junction-intersection_4" to="edge-south-NS" fromLane="0" toLane="0" dir="r" state="M"/>
    <connection from=":junction-intersection_5" to="edge-east-WE" fromLane="0" toLane="0" dir="s" state="M"/>
    <connection from=":junction-south_0" to="edge-south-side" fromLane="0" toLane="0" dir="r" state="M"/>

</net>
